[TITLE]
 

[JUNCTIONS]
;ID  Elev  Demand  Pattern
;-------------------------
JUNCTION-0 25.0
JUNCTION-1 31.0
JUNCTION-10 35.0
JUNCTION-100 24.0
JUNCTION-1000 69.0
JUNCTION-1001 65.0
JUNCTION-1002 70.0
JUNCTION-1003 72.0
JUNCTION-1004 72.0
JUNCTION-1005 74.0
JUNCTION-1006 74.0
JUNCTION-1007 75.0
JUNCTION-1008 78.0
JUNCTION-1009 75.0
JUNCTION-101 23.0
JUNCTION-1010 77.0
JUNCTION-1011 79.0
JUNCTION-1012 80.0
JUNCTION-1013 80.0
JUNCTION-1014 83.0
JUNCTION-1015 82.0
JUNCTION-1016 86.0
JUNCTION-1017 85.0
JUNCTION-1018 83.0
JUNCTION-1019 90.0
JUNCTION-102 17.0
JUNCTION-1020 94.0
JUNCTION-1021 78.0
JUNCTION-1022 71.0
JUNCTION-1023 75.0
JUNCTION-1024 71.0
JUNCTION-1025 71.0
JUNCTION-1026 73.0
JUNCTION-1027 71.0
JUNCTION-1028 70.0
JUNCTION-1029 70.0
JUNCTION-103 17.0
JUNCTION-1030 60.0
JUNCTION-1031 60.0
JUNCTION-1032 62.0
JUNCTION-1033 60.0
JUNCTION-1034 59.0
JUNCTION-1035 57.0
JUNCTION-1036 57.0
JUNCTION-1037 57.0
JUNCTION-1038 54.0
JUNCTION-1039 53.0
JUNCTION-104 17.0
JUNCTION-1040 57.0
JUNCTION-1041 50.0
JUNCTION-1042 52.0
JUNCTION-1043 50.0
JUNCTION-1044 50.0
JUNCTION-1045 48.0
JUNCTION-1046 48.0
JUNCTION-1047 50.0
JUNCTION-1048 70.0
JUNCTION-1049 75.0
JUNCTION-105 19.0
JUNCTION-1050 75.0
JUNCTION-1051 75.0
JUNCTION-1052 80.0
JUNCTION-1053 90.0
JUNCTION-1054 88.0
JUNCTION-1055 65.0
JUNCTION-1056 75.0
JUNCTION-1057 66.0
JUNCTION-1058 58.0
JUNCTION-1059 56.0
JUNCTION-106 18.0
JUNCTION-1060 57.0
JUNCTION-1061 63.0
JUNCTION-1062 70.0
JUNCTION-1063 68.0
JUNCTION-1064 78.0
JUNCTION-1065 55.0
JUNCTION-1066 56.0
JUNCTION-1067 57.0
JUNCTION-1068 57.0
JUNCTION-1069 71.0
JUNCTION-107 18.0
JUNCTION-1070 69.0
JUNCTION-1071 71.0
JUNCTION-1072 63.0
JUNCTION-1073 71.0
JUNCTION-1074 72.0
JUNCTION-1075 74.0
JUNCTION-1076 70.0
JUNCTION-1077 74.0
JUNCTION-1078 74.0
JUNCTION-1079 77.0
JUNCTION-108 30.0
JUNCTION-1080 82.0
JUNCTION-1081 58.0
JUNCTION-1082 73.0
JUNCTION-1083 76.0
JUNCTION-1084 80.0
JUNCTION-1085 80.0
JUNCTION-1086 102.0
JUNCTION-1087 105.0
JUNCTION-1088 85.0
JUNCTION-1089 85.0
JUNCTION-109 36.0
JUNCTION-1090 101.0
JUNCTION-1091 101.0
JUNCTION-1092 100.0
JUNCTION-1093 98.0
JUNCTION-1094 100.0
JUNCTION-1095 120.0
JUNCTION-1096 102.0
JUNCTION-1097 102.0
JUNCTION-1098 108.0
JUNCTION-1099 145.0
JUNCTION-11 35.0
JUNCTION-110 47.0
JUNCTION-1100 195.0
JUNCTION-1101 100.0
JUNCTION-1102 85.0
JUNCTION-1103 85.0
JUNCTION-1104 81.0
JUNCTION-1105 80.0
JUNCTION-1106 77.0
JUNCTION-1107 75.0
JUNCTION-1108 92.0
JUNCTION-1109 112.0
JUNCTION-111 70.0
JUNCTION-1110 112.0
JUNCTION-1111 112.0
JUNCTION-1112 120.0
JUNCTION-1113 122.0
JUNCTION-1114 120.0
JUNCTION-1115 122.0
JUNCTION-1116 30.0
JUNCTION-1117 30.0
JUNCTION-1118 30.0
JUNCTION-1119 29.0
JUNCTION-112 72.0
JUNCTION-1120 29.0
JUNCTION-1121 31.0
JUNCTION-1122 30.0
JUNCTION-1123 29.0
JUNCTION-1124 30.0
JUNCTION-1125 25.0
JUNCTION-1126 25.0
JUNCTION-1127 25.0
JUNCTION-1128 25.0
JUNCTION-1129 25.0
JUNCTION-113 72.0
JUNCTION-1130 35.0
JUNCTION-1131 25.0
JUNCTION-1132 24.0
JUNCTION-1133 25.0
JUNCTION-1134 32.0
JUNCTION-1135 35.0
JUNCTION-1136 25.0
JUNCTION-1137 38.0
JUNCTION-1138 40.0
JUNCTION-1139 40.0
JUNCTION-114 39.0
JUNCTION-1140 40.0
JUNCTION-1141 20.0
JUNCTION-1142 25.0
JUNCTION-1143 25.0
JUNCTION-1144 26.0
JUNCTION-1145 24.0
JUNCTION-1146 26.0
JUNCTION-1147 25.0
JUNCTION-1148 26.0
JUNCTION-1149 26.0
JUNCTION-115 30.0
JUNCTION-1150 26.0
JUNCTION-1151 27.0
JUNCTION-1152 28.0
JUNCTION-1153 29.0
JUNCTION-1154 29.0
JUNCTION-1155 28.0
JUNCTION-1156 28.0
JUNCTION-1157 25.0
JUNCTION-1158 24.0
JUNCTION-1159 23.0
JUNCTION-116 47.0
JUNCTION-1160 23.0
JUNCTION-1161 22.0
JUNCTION-1162 23.0
JUNCTION-1163 23.0
JUNCTION-1164 23.0
JUNCTION-1165 23.0
JUNCTION-1166 22.0
JUNCTION-1167 20.0
JUNCTION-1168 22.0
JUNCTION-1169 20.0
JUNCTION-117 20.0
JUNCTION-1170 21.0
JUNCTION-1171 21.0
JUNCTION-1172 20.0
JUNCTION-1173 20.0
JUNCTION-1174 15.0
JUNCTION-1175 16.0
JUNCTION-1176 15.0
JUNCTION-1177 18.0
JUNCTION-1178 16.0
JUNCTION-1179 16.0
JUNCTION-118 39.0
JUNCTION-1180 15.0
JUNCTION-1181 17.0
JUNCTION-1182 18.0
JUNCTION-1183 15.0
JUNCTION-1184 15.0
JUNCTION-1185 16.0
JUNCTION-1186 16.0
JUNCTION-1187 15.0
JUNCTION-1188 15.0
JUNCTION-1189 20.0
JUNCTION-119 35.0
JUNCTION-1190 20.0
JUNCTION-1191 20.0
JUNCTION-1192 22.0
JUNCTION-1193 40.0
JUNCTION-1194 40.0
JUNCTION-1195 35.0
JUNCTION-1196 60.0
JUNCTION-1197 95.0
JUNCTION-1198 60.0
JUNCTION-1199 90.0
JUNCTION-12 51.0
JUNCTION-120 20.0
JUNCTION-1200 80.0
JUNCTION-1201 100.0
JUNCTION-1202 60.0
JUNCTION-1203 70.0
JUNCTION-1204 140.0
JUNCTION-1205 192.0
JUNCTION-1206 140.0
JUNCTION-1207 120.0
JUNCTION-1208 95.0
JUNCTION-1209 65.0
JUNCTION-121 31.0
JUNCTION-1210 70.0
JUNCTION-1211 38.0
JUNCTION-1212 40.0
JUNCTION-1213 40.0
JUNCTION-1214 35.0
JUNCTION-1215 35.0
JUNCTION-1216 26.0
JUNCTION-1217 23.0
JUNCTION-1218 28.0
JUNCTION-1219 35.0
JUNCTION-122 20.0
JUNCTION-1220 42.0
JUNCTION-1221 38.0
JUNCTION-1222 50.0
JUNCTION-1223 55.0
JUNCTION-1224 65.0
JUNCTION-1225 65.0
JUNCTION-1226 80.0
JUNCTION-1227 80.0
JUNCTION-1228 70.0
JUNCTION-1229 102.0
JUNCTION-123 58.0
JUNCTION-1230 105.0
JUNCTION-1231 110.0
JUNCTION-1232 115.0
JUNCTION-1233 115.0
JUNCTION-1234 115.0
JUNCTION-1235 95.0
JUNCTION-1236 90.0
JUNCTION-1237 58.0
JUNCTION-1238 28.0
JUNCTION-1239 26.0
JUNCTION-124 58.0
JUNCTION-1240 23.0
JUNCTION-1241 22.0
JUNCTION-1242 28.0
JUNCTION-1243 20.0
JUNCTION-1244 25.0
JUNCTION-1245 22.0
JUNCTION-1246 22.0
JUNCTION-1247 20.0
JUNCTION-1248 20.0
JUNCTION-1249 15.0
JUNCTION-125 55.0
JUNCTION-1250 15.0
JUNCTION-1251 15.0
JUNCTION-1252 15.0
JUNCTION-1253 20.0
JUNCTION-1254 20.0
JUNCTION-1255 34.0
JUNCTION-1256 32.0
JUNCTION-1257 40.0
JUNCTION-1258 20.0
JUNCTION-1259 35.0
JUNCTION-126 53.0
JUNCTION-1260 42.0
JUNCTION-1261 60.0
JUNCTION-1262 60.0
JUNCTION-1263 38.0
JUNCTION-1264 37.0
JUNCTION-1265 40.0
JUNCTION-1266 38.0
JUNCTION-1267 19.0
JUNCTION-1268 19.0
JUNCTION-1269 15.0
JUNCTION-127 60.0
JUNCTION-1270 17.0
JUNCTION-1271 17.0
JUNCTION-1272 17.0
JUNCTION-1273 17.0
JUNCTION-1274 17.0
JUNCTION-1275 17.0
JUNCTION-1276 16.0
JUNCTION-1277 16.0
JUNCTION-1278 16.0
JUNCTION-1279 16.0
JUNCTION-128 58.0
JUNCTION-1280 17.0
JUNCTION-1281 17.0
JUNCTION-1282 19.0
JUNCTION-1283 20.0
JUNCTION-1284 17.0
JUNCTION-1285 17.0
JUNCTION-1286 20.0
JUNCTION-1287 16.0
JUNCTION-1288 20.0
JUNCTION-1289 28.0
JUNCTION-129 58.0
JUNCTION-1290 22.0
JUNCTION-1291 22.0
JUNCTION-1292 58.0
JUNCTION-1293 20.0
JUNCTION-1294 39.0
JUNCTION-1295 23.0
JUNCTION-1296 23.0
JUNCTION-1297 22.0
JUNCTION-1298 25.0
JUNCTION-1299 32.0
JUNCTION-13 32.0
JUNCTION-130 43.0
JUNCTION-1300 40.0
JUNCTION-1301 40.0
JUNCTION-1302 40.0
JUNCTION-1303 53.0
JUNCTION-1304 38.0
JUNCTION-1305 40.0
JUNCTION-1306 50.0
JUNCTION-1307 60.0
JUNCTION-1308 25.0
JUNCTION-1309 15.0
JUNCTION-131 40.0
JUNCTION-1310 14.0
JUNCTION-1311 10.0
JUNCTION-1312 15.0
JUNCTION-1313 12.0
JUNCTION-1314 14.0
JUNCTION-1315 18.0
JUNCTION-1316 38.0
JUNCTION-1317 25.0
JUNCTION-1318 30.0
JUNCTION-1319 30.0
JUNCTION-132 46.0
JUNCTION-1320 25.0
JUNCTION-1321 30.0
JUNCTION-1322 50.0
JUNCTION-1323 15.0
JUNCTION-1324 45.0
JUNCTION-1325 70.0
JUNCTION-1326 75.0
JUNCTION-1327 135.0
JUNCTION-1328 130.0
JUNCTION-1329 120.0
JUNCTION-133 42.0
JUNCTION-1330 60.0
JUNCTION-1331 40.0
JUNCTION-1332 30.0
JUNCTION-1333 25.0
JUNCTION-1334 30.0
JUNCTION-1335 32.0
JUNCTION-1336 35.0
JUNCTION-1337 25.0
JUNCTION-1338 30.0
JUNCTION-1339 30.0
JUNCTION-134 40.0
JUNCTION-1340 60.0
JUNCTION-1341 62.0
JUNCTION-1342 30.0
JUNCTION-1343 22.0
JUNCTION-1344 20.0
JUNCTION-1345 20.0
JUNCTION-1346 30.0
JUNCTION-1347 60.0
JUNCTION-1348 85.0
JUNCTION-1349 70.0
JUNCTION-135 40.0
JUNCTION-1350 50.0
JUNCTION-1351 105.0
JUNCTION-1352 58.0
JUNCTION-1353 105.0
JUNCTION-1354 85.0
JUNCTION-1355 81.0
JUNCTION-1356 80.0
JUNCTION-1357 76.0
JUNCTION-1358 78.0
JUNCTION-1359 95.0
JUNCTION-136 55.0
JUNCTION-1360 70.0
JUNCTION-1361 68.0
JUNCTION-1362 76.0
JUNCTION-1363 72.0
JUNCTION-1364 58.0
JUNCTION-1365 60.0
JUNCTION-1366 60.0
JUNCTION-1367 60.0
JUNCTION-1368 60.0
JUNCTION-1369 60.0
JUNCTION-137 59.0
JUNCTION-1370 60.0
JUNCTION-1371 70.0
JUNCTION-1372 75.0
JUNCTION-1373 55.0
JUNCTION-1374 52.0
JUNCTION-1375 48.0
JUNCTION-1376 48.0
JUNCTION-1377 48.0
JUNCTION-1378 75.0
JUNCTION-1379 79.0
JUNCTION-138 60.0
JUNCTION-1380 84.0
JUNCTION-1381 88.0
JUNCTION-1382 99.0
JUNCTION-1383 106.0
JUNCTION-1384 127.0
JUNCTION-1385 126.0
JUNCTION-1386 101.0
JUNCTION-1387 104.0
JUNCTION-1388 93.0
JUNCTION-1389 71.0
JUNCTION-139 97.0
JUNCTION-1390 72.0
JUNCTION-1391 71.0
JUNCTION-1392 91.0
JUNCTION-1393 67.0
JUNCTION-1394 90.0
JUNCTION-1395 90.0
JUNCTION-1396 95.0
JUNCTION-1397 95.0
JUNCTION-1398 95.0
JUNCTION-1399 93.0
JUNCTION-14 50.0
JUNCTION-140 96.0
JUNCTION-1400 103.0
JUNCTION-1401 103.0
JUNCTION-1402 103.0
JUNCTION-1403 100.0
JUNCTION-1404 95.0
JUNCTION-1405 95.0
JUNCTION-1406 95.0
JUNCTION-1407 100.0
JUNCTION-1408 95.0
JUNCTION-1409 95.0
JUNCTION-141 60.0
JUNCTION-1410 67.0
JUNCTION-1411 67.0
JUNCTION-1412 67.0
JUNCTION-1413 67.0
JUNCTION-1414 82.0
JUNCTION-1415 75.0
JUNCTION-1416 78.0
JUNCTION-1417 68.0
JUNCTION-1418 65.0
JUNCTION-1419 62.0
JUNCTION-142 62.0
JUNCTION-1420 61.0
JUNCTION-1421 59.0
JUNCTION-1422 56.0
JUNCTION-1423 65.0
JUNCTION-1424 65.0
JUNCTION-1425 65.0
JUNCTION-1426 70.0
JUNCTION-1427 77.0
JUNCTION-1428 71.0
JUNCTION-1429 73.0
JUNCTION-143 60.0
JUNCTION-1430 76.0
JUNCTION-1431 85.0
JUNCTION-1432 86.0
JUNCTION-1433 87.0
JUNCTION-1434 98.0
JUNCTION-1435 98.0
JUNCTION-1436 98.0
JUNCTION-1437 98.0
JUNCTION-1438 83.0
JUNCTION-1439 97.0
JUNCTION-144 58.0
JUNCTION-1440 97.0
JUNCTION-1441 96.0
JUNCTION-1442 87.0
JUNCTION-1443 79.0
JUNCTION-1444 85.0
JUNCTION-1445 89.0
JUNCTION-1446 85.0
JUNCTION-1447 85.0
JUNCTION-1448 85.0
JUNCTION-1449 85.0
JUNCTION-145 60.0
JUNCTION-1450 85.0
JUNCTION-1451 83.0
JUNCTION-1452 92.0
JUNCTION-1453 90.0
JUNCTION-1454 76.0
JUNCTION-1455 90.0
JUNCTION-1456 95.0
JUNCTION-1457 58.0
JUNCTION-1458 60.0
JUNCTION-1459 60.0
JUNCTION-146 76.0
JUNCTION-1460 56.0
JUNCTION-1461 59.0
JUNCTION-1462 58.0
JUNCTION-1463 56.0
JUNCTION-1464 52.0
JUNCTION-1465 52.0
JUNCTION-1466 54.0
JUNCTION-1467 49.0
JUNCTION-1468 51.0
JUNCTION-1469 51.0
JUNCTION-147 77.0
JUNCTION-1470 49.0
JUNCTION-1471 46.0
JUNCTION-1472 43.0
JUNCTION-1473 44.0
JUNCTION-1474 32.0
JUNCTION-1475 42.0
JUNCTION-1476 44.0
JUNCTION-1477 47.0
JUNCTION-1478 48.0
JUNCTION-1479 25.0
JUNCTION-148 70.0
JUNCTION-1480 30.0
JUNCTION-1481 16.0
JUNCTION-1482 20.0
JUNCTION-1483 82.0
JUNCTION-1484 80.0
JUNCTION-1485 52.0
JUNCTION-1486 57.0
JUNCTION-1487 48.0
JUNCTION-1488 97.0
JUNCTION-1489 98.0
JUNCTION-149 70.0
JUNCTION-1490 95.0
JUNCTION-1491 98.0
JUNCTION-1492 97.0
JUNCTION-1493 97.5
JUNCTION-1494 100.0
JUNCTION-1495 100.0
JUNCTION-1496 82.0
JUNCTION-1497 78.0
JUNCTION-1498 78.0
JUNCTION-1499 82.0
JUNCTION-15 61.0
JUNCTION-150 70.0
JUNCTION-1500 83.0
JUNCTION-1501 91.0
JUNCTION-1502 82.0
JUNCTION-1503 90.0
JUNCTION-1504 91.0
JUNCTION-1505 91.0
JUNCTION-1506 70.0
JUNCTION-1507 53.0
JUNCTION-1508 90.0
JUNCTION-1509 55.0
JUNCTION-151 67.0
JUNCTION-1510 59.0
JUNCTION-1511 52.0
JUNCTION-1512 16.0
JUNCTION-1513 15.0
JUNCTION-1514 13.0
JUNCTION-1515 15.0
JUNCTION-1516 15.0
JUNCTION-1517 15.0
JUNCTION-1518 50.0
JUNCTION-1519 55.0
JUNCTION-152 70.0
JUNCTION-1520 53.0
JUNCTION-1521 195.0
JUNCTION-1522 32.0
JUNCTION-1523 35.0
JUNCTION-1524 50.0
JUNCTION-1525 37.0
JUNCTION-1526 26.0
JUNCTION-1527 23.0
JUNCTION-1528 37.0
JUNCTION-1529 40.0
JUNCTION-153 70.0
JUNCTION-1530 37.0
JUNCTION-1531 39.0
JUNCTION-1532 35.0
JUNCTION-1533 39.0
JUNCTION-1534 85.0
JUNCTION-1535 89.0
JUNCTION-1536 87.0
JUNCTION-1537 87.0
JUNCTION-1538 90.0
JUNCTION-1539 90.0
JUNCTION-154 70.0
JUNCTION-1540 90.0
JUNCTION-1541 90.0
JUNCTION-1542 90.0
JUNCTION-1543 90.0
JUNCTION-1544 90.0
JUNCTION-1545 90.0
JUNCTION-1546 85.0
JUNCTION-1547 90.0
JUNCTION-1548 90.0
JUNCTION-1549 90.0
JUNCTION-155 60.0
JUNCTION-1550 90.0
JUNCTION-1551 83.0
JUNCTION-1552 85.0
JUNCTION-1553 85.0
JUNCTION-1554 80.0
JUNCTION-1555 80.0
JUNCTION-1556 75.0
JUNCTION-1557 72.0
JUNCTION-1558 72.0
JUNCTION-1559 72.0
JUNCTION-156 61.0
JUNCTION-1560 72.0
JUNCTION-1561 75.0
JUNCTION-1562 80.0
JUNCTION-1563 80.0
JUNCTION-1564 70.0
JUNCTION-1565 85.0
JUNCTION-1566 85.0
JUNCTION-1567 85.0
JUNCTION-1568 80.0
JUNCTION-1569 80.0
JUNCTION-157 70.0
JUNCTION-1570 85.0
JUNCTION-1571 85.0
JUNCTION-1572 90.0
JUNCTION-1573 80.0
JUNCTION-1574 88.0
JUNCTION-1575 70.0
JUNCTION-1576 85.0
JUNCTION-1577 80.0
JUNCTION-1578 42.0
JUNCTION-1579 45.0
JUNCTION-158 73.0
JUNCTION-1580 71.0
JUNCTION-1581 42.0
JUNCTION-1582 192.76
JUNCTION-1583 77.0
JUNCTION-1584 28.0
JUNCTION-1585 46.86
JUNCTION-1586 64.5
JUNCTION-1587 54.0
JUNCTION-1588 83.0
JUNCTION-1589 95.0
JUNCTION-159 77.0
JUNCTION-1590 22.0
JUNCTION-1591 160.0
JUNCTION-1592 160.0
JUNCTION-1593 159.8
JUNCTION-1594 193.0
JUNCTION-1595 193.0
JUNCTION-1596 181.95
JUNCTION-1597 190.0
JUNCTION-1598 38.0
JUNCTION-1599 193.0
JUNCTION-16 65.0
JUNCTION-160 77.0
JUNCTION-1600 50.0
JUNCTION-1601 123.0
JUNCTION-1602 120.0
JUNCTION-1603 119.0
JUNCTION-1604 120.0
JUNCTION-1605 120.0
JUNCTION-1606 121.0
JUNCTION-1607 122.0
JUNCTION-1608 121.0
JUNCTION-1609 118.0
JUNCTION-161 73.0
JUNCTION-1610 118.0
JUNCTION-1611 116.0
JUNCTION-1612 125.0
JUNCTION-1613 132.0
JUNCTION-1614 134.0
JUNCTION-1615 137.0
JUNCTION-1616 155.0
JUNCTION-1617 155.0
JUNCTION-1618 153.0
JUNCTION-1619 162.0
JUNCTION-162 59.0
JUNCTION-1620 162.0
JUNCTION-1621 162.0
JUNCTION-1622 159.0
JUNCTION-1623 158.0
JUNCTION-1624 155.0
JUNCTION-1625 162.0
JUNCTION-1626 195.0
JUNCTION-1627 160.0
JUNCTION-1628 156.0
JUNCTION-1629 130.0
JUNCTION-163 58.0
JUNCTION-1630 132.0
JUNCTION-1631 134.0
JUNCTION-1632 130.0
JUNCTION-1633 139.0
JUNCTION-1634 141.0
JUNCTION-1635 137.0
JUNCTION-1636 132.0
JUNCTION-1637 132.0
JUNCTION-1638 144.0
JUNCTION-1639 148.0
JUNCTION-164 56.0
JUNCTION-1640 151.0
JUNCTION-1641 158.0
JUNCTION-1642 161.0
JUNCTION-1643 164.0
JUNCTION-1644 165.0
JUNCTION-1645 176.0
JUNCTION-1646 180.0
JUNCTION-1647 180.0
JUNCTION-1648 185.0
JUNCTION-1649 185.0
JUNCTION-165 57.0
JUNCTION-1650 185.0
JUNCTION-1651 185.0
JUNCTION-1652 178.0
JUNCTION-1653 188.0
JUNCTION-1654 193.0
JUNCTION-1655 185.0
JUNCTION-1656 185.0
JUNCTION-1657 185.0
JUNCTION-1658 188.0
JUNCTION-1659 190.0
JUNCTION-166 58.0
JUNCTION-1660 190.0
JUNCTION-1661 195.0
JUNCTION-1662 190.0
JUNCTION-1663 195.0
JUNCTION-1664 200.0
JUNCTION-1665 195.0
JUNCTION-1666 190.0
JUNCTION-1667 190.0
JUNCTION-1668 185.0
JUNCTION-1669 187.0
JUNCTION-167 75.0
JUNCTION-1670 187.0
JUNCTION-1671 187.0
JUNCTION-1672 186.0
JUNCTION-1673 185.0
JUNCTION-1674 188.0
JUNCTION-1675 192.0
JUNCTION-1676 188.0
JUNCTION-1677 195.0
JUNCTION-1678 195.0
JUNCTION-1679 200.0
JUNCTION-168 52.0
JUNCTION-1680 200.0
JUNCTION-1681 200.0
JUNCTION-1682 205.0
JUNCTION-1683 205.0
JUNCTION-1684 215.0
JUNCTION-1685 215.0
JUNCTION-1686 205.0
JUNCTION-1687 205.0
JUNCTION-1688 210.0
JUNCTION-1689 205.0
JUNCTION-169 48.0
JUNCTION-1690 210.0
JUNCTION-1691 210.0
JUNCTION-1692 210.0
JUNCTION-1693 215.0
JUNCTION-1694 215.0
JUNCTION-1695 220.0
JUNCTION-1696 220.0
JUNCTION-1697 220.0
JUNCTION-1698 220.0
JUNCTION-1699 220.0
JUNCTION-17 80.0
JUNCTION-170 65.0
JUNCTION-1700 215.0
JUNCTION-1701 215.0
JUNCTION-1702 215.0
JUNCTION-1703 215.0
JUNCTION-1704 215.0
JUNCTION-1705 215.0
JUNCTION-1706 215.0
JUNCTION-1707 210.0
JUNCTION-1708 205.0
JUNCTION-1709 205.0
JUNCTION-171 65.0
JUNCTION-1710 205.0
JUNCTION-1711 200.0
JUNCTION-1712 200.0
JUNCTION-1713 205.0
JUNCTION-1714 205.0
JUNCTION-1715 215.0
JUNCTION-1716 205.0
JUNCTION-1717 205.0
JUNCTION-1718 215.0
JUNCTION-1719 215.0
JUNCTION-172 70.0
JUNCTION-1720 216.0
JUNCTION-1721 214.0
JUNCTION-1722 215.0
JUNCTION-1723 215.0
JUNCTION-1724 200.0
JUNCTION-1725 205.0
JUNCTION-1726 210.0
JUNCTION-1727 210.0
JUNCTION-1728 205.0
JUNCTION-1729 205.0
JUNCTION-173 75.0
JUNCTION-1730 205.0
JUNCTION-1731 215.0
JUNCTION-1732 205.0
JUNCTION-1733 205.0
JUNCTION-1734 195.0
JUNCTION-1735 195.0
JUNCTION-1736 205.0
JUNCTION-1737 205.0
JUNCTION-1738 200.0
JUNCTION-1739 205.0
JUNCTION-174 76.0
JUNCTION-1740 200.0
JUNCTION-1741 195.0
JUNCTION-1742 195.0
JUNCTION-1743 195.0
JUNCTION-1744 195.0
JUNCTION-1745 195.0
JUNCTION-1746 186.0
JUNCTION-1747 185.0
JUNCTION-1748 185.0
JUNCTION-1749 190.0
JUNCTION-175 72.0
JUNCTION-1750 190.0
JUNCTION-1751 192.0
JUNCTION-1752 182.0
JUNCTION-1753 182.0
JUNCTION-1754 185.0
JUNCTION-1755 180.0
JUNCTION-1756 173.0
JUNCTION-1757 176.0
JUNCTION-1758 174.0
JUNCTION-1759 177.0
JUNCTION-176 72.0
JUNCTION-1760 183.0
JUNCTION-1761 180.0
JUNCTION-1762 177.0
JUNCTION-1763 177.0
JUNCTION-1764 177.0
JUNCTION-1765 167.0
JUNCTION-1766 166.0
JUNCTION-1767 166.0
JUNCTION-1768 165.0
JUNCTION-1769 165.0
JUNCTION-177 65.0
JUNCTION-1770 165.0
JUNCTION-1771 176.0
JUNCTION-1772 190.0
JUNCTION-1773 195.0
JUNCTION-1774 193.0
JUNCTION-1775 200.0
JUNCTION-1776 200.0
JUNCTION-1777 195.0
JUNCTION-1778 200.0
JUNCTION-1779 195.0
JUNCTION-178 60.0
JUNCTION-1780 190.0
JUNCTION-1781 195.0
JUNCTION-1782 195.0
JUNCTION-1783 195.0
JUNCTION-1784 190.0
JUNCTION-1785 190.0
JUNCTION-1786 195.0
JUNCTION-1787 192.0
JUNCTION-1788 240.0
JUNCTION-1789 275.9
JUNCTION-179 62.0
JUNCTION-1790 215.0
JUNCTION-1791 220.0
JUNCTION-1792 200.0
JUNCTION-1793 190.0
JUNCTION-1794 190.0
JUNCTION-1795 180.0
JUNCTION-1796 167.0
JUNCTION-1797 65.0
JUNCTION-1798 162.0
JUNCTION-1799 166.0
JUNCTION-18 80.0
JUNCTION-180 61.0
JUNCTION-1800 165.0
JUNCTION-1801 183.0
JUNCTION-1802 185.0
JUNCTION-1803 170.0
JUNCTION-1804 173.0
JUNCTION-1805 165.0
JUNCTION-1806 148.0
JUNCTION-1807 142.0
JUNCTION-1808 152.0
JUNCTION-1809 155.0
JUNCTION-181 75.0
JUNCTION-1810 154.0
JUNCTION-1811 153.0
JUNCTION-1812 146.0
JUNCTION-1813 145.0
JUNCTION-1814 139.0
JUNCTION-1815 136.0
JUNCTION-1816 124.0
JUNCTION-1817 123.0
JUNCTION-1818 117.0
JUNCTION-1819 116.0
JUNCTION-182 67.0
JUNCTION-1820 115.0
JUNCTION-1821 115.0
JUNCTION-1822 134.0
JUNCTION-1823 129.0
JUNCTION-1824 123.0
JUNCTION-1825 123.0
JUNCTION-1826 122.0
JUNCTION-1827 121.0
JUNCTION-1828 122.0
JUNCTION-1829 125.0
JUNCTION-183 68.0
JUNCTION-1830 125.0
JUNCTION-1831 134.0
JUNCTION-1832 138.0
JUNCTION-1833 133.0
JUNCTION-1834 136.0
JUNCTION-1835 137.0
JUNCTION-1836 128.0
JUNCTION-1837 124.0
JUNCTION-1838 126.0
JUNCTION-1839 130.0
JUNCTION-184 70.0
JUNCTION-1840 140.0
JUNCTION-1841 141.0
JUNCTION-1842 150.0
JUNCTION-1843 150.0
JUNCTION-1844 152.0
JUNCTION-1845 156.0
JUNCTION-1846 156.0
JUNCTION-1847 160.0
JUNCTION-1848 160.0
JUNCTION-1849 162.0
JUNCTION-185 73.0
JUNCTION-1850 154.0
JUNCTION-1851 144.0
JUNCTION-1852 139.0
JUNCTION-1853 155.0
JUNCTION-1854 160.0
JUNCTION-1855 160.0
JUNCTION-1856 170.0
JUNCTION-1857 180.0
JUNCTION-1858 165.0
JUNCTION-1859 160.0
JUNCTION-186 75.0
JUNCTION-1860 160.0
JUNCTION-1861 160.0
JUNCTION-1862 160.0
JUNCTION-1863 157.0
JUNCTION-1864 125.0
JUNCTION-1865 123.0
JUNCTION-1866 116.0
JUNCTION-1867 120.0
JUNCTION-1868 122.0
JUNCTION-1869 125.0
JUNCTION-187 75.0
JUNCTION-1870 123.0
JUNCTION-1871 115.0
JUNCTION-1872 103.0
JUNCTION-1873 105.0
JUNCTION-1874 104.0
JUNCTION-1875 105.0
JUNCTION-1876 118.0
JUNCTION-1877 125.0
JUNCTION-1878 137.0
JUNCTION-1879 130.0
JUNCTION-188 84.0
JUNCTION-1880 115.0
JUNCTION-1881 134.0
JUNCTION-1882 130.0
JUNCTION-1883 120.0
JUNCTION-1884 120.0
JUNCTION-1885 120.0
JUNCTION-1886 125.0
JUNCTION-1887 160.0
JUNCTION-1888 135.0
JUNCTION-1889 165.0
JUNCTION-189 69.0
JUNCTION-1890 170.0
JUNCTION-1891 103.0
JUNCTION-1892 103.0
JUNCTION-1893 103.0
JUNCTION-1894 105.0
JUNCTION-1895 110.0
JUNCTION-1896 105.0
JUNCTION-1897 105.0
JUNCTION-1898 105.0
JUNCTION-1899 105.0
JUNCTION-19 40.0
JUNCTION-190 77.0
JUNCTION-1900 120.0
JUNCTION-1901 140.0
JUNCTION-1902 193.0
JUNCTION-1903 210.0
JUNCTION-1904 200.0
JUNCTION-1905 250.0
JUNCTION-1906 250.0
JUNCTION-1907 205.0
JUNCTION-1908 180.0
JUNCTION-1909 155.0
JUNCTION-191 76.0
JUNCTION-1910 200.0
JUNCTION-1911 180.0
JUNCTION-1912 160.0
JUNCTION-1913 115.0
JUNCTION-1914 120.0
JUNCTION-1915 135.0
JUNCTION-1916 140.0
JUNCTION-1917 105.0
JUNCTION-1918 105.0
JUNCTION-1919 105.0
JUNCTION-192 77.0
JUNCTION-1920 115.0
JUNCTION-1921 110.0
JUNCTION-1922 135.0
JUNCTION-1923 135.0
JUNCTION-1924 205.0
JUNCTION-1925 130.0
JUNCTION-1926 130.0
JUNCTION-1927 193.0
JUNCTION-1928 140.0
JUNCTION-1929 200.0
JUNCTION-193 76.0
JUNCTION-1930 180.0
JUNCTION-1931 175.0
JUNCTION-1932 155.0
JUNCTION-1933 240.0
JUNCTION-1934 125.0
JUNCTION-1935 140.0
JUNCTION-1936 140.0
JUNCTION-1937 140.0
JUNCTION-1938 135.0
JUNCTION-1939 130.0
JUNCTION-194 76.0
JUNCTION-1940 130.0
JUNCTION-1941 145.0
JUNCTION-1942 150.0
JUNCTION-1943 150.0
JUNCTION-1944 145.0
JUNCTION-1945 140.0
JUNCTION-1946 135.0
JUNCTION-1947 140.0
JUNCTION-1948 145.0
JUNCTION-1949 135.0
JUNCTION-195 60.0
JUNCTION-1950 220.0
JUNCTION-1951 190.0
JUNCTION-1952 170.0
JUNCTION-1953 170.0
JUNCTION-1954 180.0
JUNCTION-1955 210.0
JUNCTION-1956 240.0
JUNCTION-1957 220.0
JUNCTION-1958 220.0
JUNCTION-1959 180.0
JUNCTION-196 60.0
JUNCTION-1960 180.0
JUNCTION-1961 175.0
JUNCTION-1962 175.0
JUNCTION-1963 165.0
JUNCTION-1964 165.0
JUNCTION-1965 160.0
JUNCTION-1966 170.0
JUNCTION-1967 170.0
JUNCTION-1968 170.0
JUNCTION-1969 180.0
JUNCTION-197 62.0
JUNCTION-1970 180.0
JUNCTION-1971 175.0
JUNCTION-1972 175.0
JUNCTION-1973 175.0
JUNCTION-1974 185.0
JUNCTION-1975 180.0
JUNCTION-1976 180.0
JUNCTION-1977 210.0
JUNCTION-1978 200.0
JUNCTION-1979 195.0
JUNCTION-198 41.0
JUNCTION-1980 210.0
JUNCTION-1981 290.0
JUNCTION-1982 220.0
JUNCTION-1983 210.0
JUNCTION-1984 215.0
JUNCTION-1985 220.0
JUNCTION-1986 215.0
JUNCTION-1987 220.0
JUNCTION-1988 210.0
JUNCTION-1989 210.0
JUNCTION-199 39.0
JUNCTION-1990 200.0
JUNCTION-1991 190.0
JUNCTION-1992 185.0
JUNCTION-1993 180.0
JUNCTION-1994 190.0
JUNCTION-1995 190.0
JUNCTION-1996 180.0
JUNCTION-1997 180.0
JUNCTION-1998 175.0
JUNCTION-1999 240.0
JUNCTION-2 42.0
JUNCTION-20 45.0
JUNCTION-200 28.0
JUNCTION-2000 180.0
JUNCTION-2001 185.0
JUNCTION-2002 180.0
JUNCTION-2003 185.0
JUNCTION-2004 185.0
JUNCTION-2005 185.0
JUNCTION-2006 210.0
JUNCTION-2007 130.0
JUNCTION-2008 103.0
JUNCTION-2009 120.0
JUNCTION-201 26.0
JUNCTION-2010 155.0
JUNCTION-2011 150.0
JUNCTION-2012 100.0
JUNCTION-2013 80.0
JUNCTION-2014 210.0
JUNCTION-2015 220.0
JUNCTION-2016 123.0
JUNCTION-2017 130.0
JUNCTION-2018 135.0
JUNCTION-2019 140.0
JUNCTION-202 20.0
JUNCTION-2020 150.0
JUNCTION-2021 155.0
JUNCTION-2022 115.0
JUNCTION-2023 104.0
JUNCTION-2024 175.0
JUNCTION-2025 193.0
JUNCTION-2026 170.0
JUNCTION-2027 177.0
JUNCTION-2028 220.0
JUNCTION-2029 275.9
JUNCTION-203 31.0
JUNCTION-2030 275.9
JUNCTION-2031 295.0
JUNCTION-2032 193.0
JUNCTION-2033 205.0
JUNCTION-2034 180.0
JUNCTION-2035 125.0
JUNCTION-2036 130.0
JUNCTION-2037 130.0
JUNCTION-2038 200.0
JUNCTION-2039 202.0
JUNCTION-204 38.0
JUNCTION-2040 135.0
JUNCTION-2041 130.0
JUNCTION-2042 140.0
JUNCTION-2043 102.0
JUNCTION-2044 142.0
JUNCTION-2045 190.0
JUNCTION-2046 210.0
JUNCTION-2047 190.0
JUNCTION-2048 300.0
JUNCTION-2049 180.0
JUNCTION-205 28.0
JUNCTION-2050 102.0
JUNCTION-2051 110.0
JUNCTION-2052 112.0
JUNCTION-2053 130.0
JUNCTION-2054 185.0
JUNCTION-2055 182.0
JUNCTION-2056 139.0
JUNCTION-2057 125.0
JUNCTION-2058 127.0
JUNCTION-2059 125.0
JUNCTION-206 26.0
JUNCTION-2060 123.0
JUNCTION-2061 113.0
JUNCTION-2062 116.0
JUNCTION-2063 117.0
JUNCTION-2064 120.0
JUNCTION-2065 107.0
JUNCTION-2066 102.0
JUNCTION-2067 102.0
JUNCTION-2068 104.0
JUNCTION-2069 102.0
JUNCTION-207 25.0
JUNCTION-2070 107.0
JUNCTION-2071 108.0
JUNCTION-2072 124.0
JUNCTION-2073 125.0
JUNCTION-2074 123.0
JUNCTION-2075 120.0
JUNCTION-2076 118.0
JUNCTION-2077 114.0
JUNCTION-2078 113.0
JUNCTION-2079 114.0
JUNCTION-208 20.0
JUNCTION-2080 118.0
JUNCTION-2081 118.0
JUNCTION-2082 129.0
JUNCTION-2083 108.0
JUNCTION-2084 107.0
JUNCTION-2085 114.0
JUNCTION-2086 114.0
JUNCTION-2087 112.0
JUNCTION-2088 103.0
JUNCTION-2089 100.0
JUNCTION-209 24.0
JUNCTION-2090 107.0
JUNCTION-2091 107.0
JUNCTION-2092 114.0
JUNCTION-2093 115.0
JUNCTION-2094 115.0
JUNCTION-2095 107.0
JUNCTION-2096 108.0
JUNCTION-2097 123.0
JUNCTION-2098 123.0
JUNCTION-2099 125.0
JUNCTION-21 27.0
JUNCTION-210 25.0
JUNCTION-2100 123.0
JUNCTION-2101 118.0
JUNCTION-2102 111.0
JUNCTION-2103 107.0
JUNCTION-2104 98.0
JUNCTION-2105 123.0
JUNCTION-2106 123.0
JUNCTION-2107 124.0
JUNCTION-2108 131.0
JUNCTION-2109 133.0
JUNCTION-211 24.0
JUNCTION-2110 134.0
JUNCTION-2111 125.0
JUNCTION-2112 125.0
JUNCTION-2113 133.0
JUNCTION-2114 137.0
JUNCTION-2115 137.0
JUNCTION-2116 139.0
JUNCTION-2117 138.0
JUNCTION-2118 138.0
JUNCTION-2119 139.0
JUNCTION-212 24.0
JUNCTION-2120 143.0
JUNCTION-2121 137.0
JUNCTION-2122 141.0
JUNCTION-2123 137.0
JUNCTION-2124 147.0
JUNCTION-2125 148.0
JUNCTION-2126 163.0
JUNCTION-2127 163.0
JUNCTION-2128 157.0
JUNCTION-2129 165.0
JUNCTION-213 25.0
JUNCTION-2130 157.0
JUNCTION-2131 158.0
JUNCTION-2132 153.0
JUNCTION-2133 148.0
JUNCTION-2134 149.0
JUNCTION-2135 167.0
JUNCTION-2136 168.0
JUNCTION-2137 170.0
JUNCTION-2138 173.0
JUNCTION-2139 178.0
JUNCTION-214 29.0
JUNCTION-2140 175.0
JUNCTION-2141 188.0
JUNCTION-2142 185.0
JUNCTION-2143 182.0
JUNCTION-2144 192.0
JUNCTION-2145 218.0
JUNCTION-2146 191.0
JUNCTION-2147 215.0
JUNCTION-2148 200.0
JUNCTION-2149 230.0
JUNCTION-215 30.0
JUNCTION-2150 220.0
JUNCTION-2151 205.0
JUNCTION-2152 195.0
JUNCTION-2153 260.0
JUNCTION-2154 176.0
JUNCTION-2155 183.0
JUNCTION-2156 199.0
JUNCTION-2157 218.0
JUNCTION-2158 200.0
JUNCTION-2159 180.0
JUNCTION-216 26.0
JUNCTION-2160 175.0
JUNCTION-2161 171.0
JUNCTION-2162 167.0
JUNCTION-2163 162.0
JUNCTION-2164 157.0
JUNCTION-2165 154.0
JUNCTION-2166 164.0
JUNCTION-2167 162.0
JUNCTION-2168 156.0
JUNCTION-2169 154.0
JUNCTION-217 33.0
JUNCTION-2170 153.0
JUNCTION-2171 146.0
JUNCTION-2172 146.0
JUNCTION-2173 147.0
JUNCTION-2174 136.0
JUNCTION-2175 132.0
JUNCTION-2176 129.0
JUNCTION-2177 136.0
JUNCTION-2178 143.0
JUNCTION-2179 139.0
JUNCTION-218 34.0
JUNCTION-2180 137.0
JUNCTION-2181 132.0
JUNCTION-2182 129.0
JUNCTION-2183 129.0
JUNCTION-2184 130.0
JUNCTION-2185 137.0
JUNCTION-2186 123.0
JUNCTION-2187 130.0
JUNCTION-2188 124.0
JUNCTION-2189 125.0
JUNCTION-219 33.0
JUNCTION-2190 107.0
JUNCTION-2191 107.0
JUNCTION-2192 106.0
JUNCTION-2193 111.0
JUNCTION-2194 118.0
JUNCTION-2195 118.0
JUNCTION-2196 118.0
JUNCTION-2197 125.0
JUNCTION-2198 127.0
JUNCTION-2199 126.0
JUNCTION-22 33.0
JUNCTION-220 50.0
JUNCTION-2200 128.0
JUNCTION-2201 118.0
JUNCTION-2202 118.0
JUNCTION-2203 121.0
JUNCTION-2204 117.0
JUNCTION-2205 116.0
JUNCTION-2206 110.0
JUNCTION-2207 108.0
JUNCTION-2208 100.0
JUNCTION-2209 100.0
JUNCTION-221 48.0
JUNCTION-2210 120.0
JUNCTION-2211 140.0
JUNCTION-2212 100.0
JUNCTION-2213 100.0
JUNCTION-2214 116.0
JUNCTION-2215 113.0
JUNCTION-2216 111.0
JUNCTION-2217 107.0
JUNCTION-2218 104.0
JUNCTION-2219 101.0
JUNCTION-222 50.0
JUNCTION-2220 101.0
JUNCTION-2221 100.0
JUNCTION-2222 111.0
JUNCTION-2223 133.0
JUNCTION-2224 178.0
JUNCTION-2225 165.0
JUNCTION-2226 133.0
JUNCTION-2227 146.0
JUNCTION-2228 174.0
JUNCTION-2229 218.0
JUNCTION-223 50.0
JUNCTION-2230 170.0
JUNCTION-2231 170.0
JUNCTION-2232 178.0
JUNCTION-2233 205.0
JUNCTION-2234 198.0
JUNCTION-2235 182.0
JUNCTION-2236 220.0
JUNCTION-2237 220.0
JUNCTION-2238 175.0
JUNCTION-2239 170.0
JUNCTION-224 50.0
JUNCTION-2240 162.0
JUNCTION-2241 155.0
JUNCTION-2242 154.0
JUNCTION-2243 147.0
JUNCTION-2244 138.0
JUNCTION-2245 141.0
JUNCTION-2246 152.0
JUNCTION-2247 165.0
JUNCTION-2248 166.0
JUNCTION-2249 168.0
JUNCTION-225 45.0
JUNCTION-2250 168.0
JUNCTION-2251 158.0
JUNCTION-2252 157.0
JUNCTION-2253 175.0
JUNCTION-2254 184.0
JUNCTION-2255 184.0
JUNCTION-2256 195.0
JUNCTION-2257 215.0
JUNCTION-2258 220.0
JUNCTION-2259 200.0
JUNCTION-226 40.0
JUNCTION-2260 188.0
JUNCTION-2261 185.0
JUNCTION-2262 220.0
JUNCTION-2263 232.0
JUNCTION-2264 210.0
JUNCTION-2265 210.0
JUNCTION-2266 215.0
JUNCTION-2267 210.0
JUNCTION-2268 215.0
JUNCTION-2269 230.0
JUNCTION-227 42.0
JUNCTION-2270 210.0
JUNCTION-2271 220.0
JUNCTION-2272 225.0
JUNCTION-2273 220.0
JUNCTION-2274 198.0
JUNCTION-2275 193.0
JUNCTION-2276 192.0
JUNCTION-2277 168.0
JUNCTION-2278 171.0
JUNCTION-2279 168.0
JUNCTION-228 58.0
JUNCTION-2280 167.0
JUNCTION-2281 176.0
JUNCTION-2282 182.0
JUNCTION-2283 195.0
JUNCTION-2284 270.0
JUNCTION-2285 301.0
JUNCTION-2286 258.0
JUNCTION-2287 260.0
JUNCTION-2288 238.0
JUNCTION-2289 210.0
JUNCTION-229 62.0
JUNCTION-2290 210.0
JUNCTION-2291 205.0
JUNCTION-2292 200.0
JUNCTION-2293 210.0
JUNCTION-2294 218.0
JUNCTION-2295 187.0
JUNCTION-2296 189.0
JUNCTION-2297 184.0
JUNCTION-2298 178.0
JUNCTION-2299 184.0
JUNCTION-23 23.0
JUNCTION-230 63.0
JUNCTION-2300 111.0
JUNCTION-2301 143.0
JUNCTION-2302 124.0
JUNCTION-2303 195.0
JUNCTION-2304 145.0
JUNCTION-2305 178.0
JUNCTION-2306 156.0
JUNCTION-2307 178.0
JUNCTION-2308 208.0
JUNCTION-2309 205.0
JUNCTION-231 64.0
JUNCTION-2310 108.0
JUNCTION-2311 205.0
JUNCTION-2312 210.0
JUNCTION-2313 118.0
JUNCTION-2314 108.0
JUNCTION-2315 164.0
JUNCTION-2316 239.0
JUNCTION-2317 190.0
JUNCTION-2318 190.0
JUNCTION-2319 181.95
JUNCTION-232 56.0
JUNCTION-2320 180.0
JUNCTION-2321 170.0
JUNCTION-2322 228.0
JUNCTION-2323 170.0
JUNCTION-2324 290.0
JUNCTION-2325 180.0
JUNCTION-2326 160.0
JUNCTION-2327 160.0
JUNCTION-2328 120.0
JUNCTION-2329 110.0
JUNCTION-233 56.0
JUNCTION-2330 120.0
JUNCTION-2331 110.0
JUNCTION-2332 200.0
JUNCTION-2333 218.0
JUNCTION-2334 118.0
JUNCTION-2335 135.0
JUNCTION-2336 100.0
JUNCTION-2337 118.0
JUNCTION-2338 130.0
JUNCTION-2339 190.0
JUNCTION-234 55.0
JUNCTION-2340 179.0
JUNCTION-2341 169.0
JUNCTION-2342 159.8
JUNCTION-2343 137.0
JUNCTION-2344 180.0
JUNCTION-2345 140.0
JUNCTION-2346 190.0
JUNCTION-2347 170.0
JUNCTION-2348 190.0
JUNCTION-2349 145.0
JUNCTION-235 65.0
JUNCTION-2350 95.0
JUNCTION-2351 291.0
JUNCTION-2352 85.0
JUNCTION-2353 105.0
JUNCTION-2354 125.0
JUNCTION-2355 118.0
JUNCTION-2356 110.0
JUNCTION-2357 120.0
JUNCTION-2358 135.0
JUNCTION-2359 170.0
JUNCTION-236 60.0
JUNCTION-2360 75.0
JUNCTION-2361 100.0
JUNCTION-2362 105.0
JUNCTION-2363 138.0
JUNCTION-2364 150.0
JUNCTION-2365 78.0
JUNCTION-2366 80.0
JUNCTION-2367 110.0
JUNCTION-2368 100.0
JUNCTION-2369 105.0
JUNCTION-237 72.0
JUNCTION-2370 98.0
JUNCTION-2371 98.0
JUNCTION-2372 98.0
JUNCTION-2373 100.0
JUNCTION-2374 120.0
JUNCTION-2375 118.0
JUNCTION-2376 110.0
JUNCTION-2377 110.0
JUNCTION-2378 125.0
JUNCTION-2379 160.0
JUNCTION-238 70.0
JUNCTION-2380 105.0
JUNCTION-2381 140.0
JUNCTION-2382 160.0
JUNCTION-2383 140.0