[TITLE]


[JUNCTIONS]
;ID              	Elev        	Demand      	Pattern         
 JUNCTION-0      	35.507973   	2.69823     	PATTERN-1       	;
 JUNCTION-1      	30.0        	0.0         	PATTERN-1       	;
 JUNCTION-10     	64.66994    	1.49503     	PATTERN-1       	;
 JUNCTION-100    	30.0        	0.16169     	PATTERN-1       	;
 JUNCTION-1000   	74.0429     	0.0         	PATTERN-1       	;
 JUNCTION-10000  	15.0        	2.9738      	PATTERN-1       	;
 JUNCTION-10001  	15.0        	1.04588     	PATTERN-1       	;
 JUNCTION-10002  	15.0        	2.58293     	PATTERN-1       	;
 JUNCTION-10003  	15.0        	2.65393     	PATTERN-1       	;
 JUNCTION-10004  	15.0        	0.88805     	PATTERN-1       	;
 JUNCTION-10005  	15.0        	2.6193      	PATTERN-1       	;
 JUNCTION-10006  	15.0        	1.16641     	PATTERN-1       	;
 JUNCTION-10007  	15.0        	3.60095     	PATTERN-1       	;
 JUNCTION-10008  	81.803531   	0.18051     	PATTERN-1       	;
 JUNCTION-10009  	15.0        	3.55792     	PATTERN-1       	;
 JUNCTION-1001   	53.543678   	2.93354     	PATTERN-1       	;
 JUNCTION-10010  	20.0        	0.0         	PATTERN-1       	;
 JUNCTION-10011  	12.5        	0.0         	PATTERN-1       	;
 JUNCTION-10012  	20.0        	0.0         	PATTERN-1       	;
 JUNCTION-10013  	20.0        	0.0         	PATTERN-1       	;
 JUNCTION-10014  	20.0        	0.0         	PATTERN-1       	;
 JUNCTION-10015  	20.0        	0.0         	PATTERN-1       	;
 JUNCTION-10016  	30.0        	11.37059    	PATTERN-1       	;
 JUNCTION-10017  	22.188355   	0.0         	PATTERN-1       	;
 JUNCTION-10018  	25.0        	0.0         	PATTERN-1       	;
 JUNCTION-10019  	83.261645   	0.23457     	PATTERN-1       	;
 JUNCTION-1002   	57.5        	1.7915      	PATTERN-1       	;
 JUNCTION-10020  	30.0        	0.0         	PATTERN-1       	;
 JUNCTION-10021  	12.5        	0.0         	PATTERN-1       	;
 JUNCTION-10022  	13.738687   	10.53434    	PATTERN-1       	;
 JUNCTION-10023  	11.542337   	0.0         	PATTERN-1       	;
 JUNCTION-10024  	5.528293    	0.0         	PATTERN-1       	;
 JUNCTION-10025  	3.902931    	0.0         	PATTERN-1       	;
 JUNCTION-10026  	25.0        	0.0         	PATTERN-1       	;
 JUNCTION-10027  	25.0        	0.0         	PATTERN-1       	;
 JUNCTION-10028  	25.0        	0.0         	PATTERN-1       	;
 JUNCTION-10029  	18.56073    	0.0         	PATTERN-1       	;
 JUNCTION-1003   	59.293067   	3.45955     	PATTERN-1       	;
 JUNCTION-10030  	67.34201    	0.0         	PATTERN-1       	;
 JUNCTION-10031  	25.0        	0.0         	PATTERN-1       	;
 JUNCTION-10032  	21.491617   	0.0         	PATTERN-1       	;
 JUNCTION-10033  	17.917092   	0.23211     	PATTERN-1       	;
 JUNCTION-10034  	10.0        	0.0         	PATTERN-1       	;
 JUNCTION-10035  	22.10319    	0.13492     	PATTERN-1       	;
 JUNCTION-10036  	11.655156   	0.05166     	PATTERN-1       	;
 JUNCTION-10037  	25.0        	0.0         	PATTERN-1       	;
 JUNCTION-10038  	22.5        	0.80688     	PATTERN-1       	;
 JUNCTION-10039  	22.5        	0.45595     	PATTERN-1       	;
 JUNCTION-1004   	59.036879   	1.98137     	PATTERN-1       	;
 JUNCTION-10040  	24.660746   	0.0         	PATTERN-1       	;
 JUNCTION-10041  	68.485977   	0.09104     	PATTERN-1       	;
 JUNCTION-10042  	28.165198   	0.0         	PATTERN-1       	;
 JUNCTION-10043  	23.341739   	10.97887    	PATTERN-1       	;
 JUNCTION-10044  	20.0        	3.1791      	PATTERN-1       	;
 JUNCTION-10045  	23.841758   	0.15136     	PATTERN-1       	;
 JUNCTION-10046  	14.992178   	0.72582     	PATTERN-1       	;
 JUNCTION-10047  	25.0        	0.0         	PATTERN-1       	;
 JUNCTION-10048  	5.0         	1.54001     	PATTERN-1       	;
 JUNCTION-10049  	2.5         	4.04159     	PATTERN-1       	;
 JUNCTION-1005   	63.590822   	1.81141     	PATTERN-1       	;
 JUNCTION-10050  	25.0        	0.0         	PATTERN-1       	;
 JUNCTION-10051  	25.0        	3.6046      	PATTERN-1       	;
 JUNCTION-10052  	82.783093   	0.23861     	PATTERN-1       	;
 JUNCTION-10053  	25.0        	0.0         	PATTERN-1       	;
 JUNCTION-10054  	42.380804   	0.0         	PATTERN-1       	;
 JUNCTION-10055  	39.358196   	2.60696     	PATTERN-1       	;
 JUNCTION-10056  	38.983538   	0.0         	PATTERN-1       	;
 JUNCTION-10057  	27.5        	0.68822     	PATTERN-1       	;
 JUNCTION-10058  	27.651763   	2.24297     	PATTERN-1       	;
 JUNCTION-10059  	30.0        	2.60057     	PATTERN-1       	;
 JUNCTION-1006   	65.893326   	1.07171     	PATTERN-1       	;
 JUNCTION-10060  	35.188987   	0.0877      	PATTERN-1       	;
 JUNCTION-10061  	75.0        	2.75798     	PATTERN-1       	;
 JUNCTION-10062  	75.0        	2.43923     	PATTERN-1       	;
 JUNCTION-10063  	65.0        	0.0         	PATTERN-1       	;
 JUNCTION-10064  	75.0        	1.89057     	PATTERN-1       	;
 JUNCTION-10065  	20.0        	0.0         	PATTERN-1       	;
 JUNCTION-10066  	20.0        	0.0         	PATTERN-1       	;
 JUNCTION-10067  	12.546986   	0.18784     	PATTERN-1       	;
 JUNCTION-10068  	15.0        	0.86877     	PATTERN-1       	;
 JUNCTION-10069  	15.0        	0.0         	PATTERN-1       	;
 JUNCTION-1007   	58.0951     	4.13692     	PATTERN-1       	;
 JUNCTION-10070  	25.0        	0.0         	PATTERN-1       	;
 JUNCTION-10071  	14.45069    	2.9149      	PATTERN-1       	;
 JUNCTION-10072  	18.840926   	1.30875     	PATTERN-1       	;
 JUNCTION-10073  	10.0        	0.70404     	PATTERN-1       	;
 JUNCTION-10074  	60.0        	1.20827     	PATTERN-1       	;
 JUNCTION-10075  	65.0        	0.0         	PATTERN-1       	;
 JUNCTION-10076  	19.795984   	2.10582     	PATTERN-1       	;
 JUNCTION-10077  	20.624626   	1.00652     	PATTERN-1       	;
 JUNCTION-10078  	20.0        	2.3816      	PATTERN-1       	;
 JUNCTION-10079  	23.777611   	1.78726     	PATTERN-1       	;
 JUNCTION-1008   	59.325797   	3.5163      	PATTERN-1       	;
 JUNCTION-10080  	25.0        	2.88643     	PATTERN-1       	;
 JUNCTION-10081  	20.0        	1.15324     	PATTERN-1       	;
 JUNCTION-10082  	22.929702   	2.44039     	PATTERN-1       	;
 JUNCTION-10083  	22.5        	3.35577     	PATTERN-1       	;
 JUNCTION-10084  	20.0        	2.72509     	PATTERN-1       	;
 JUNCTION-10085  	22.302742   	2.09275     	PATTERN-1       	;
 JUNCTION-10086  	66.865337   	0.13567     	PATTERN-1       	;
 JUNCTION-10087  	19.707297   	1.42443     	PATTERN-1       	;
 JUNCTION-10088  	20.97792    	3.82838     	PATTERN-1       	;
 JUNCTION-10089  	20.0        	1.58154     	PATTERN-1       	;
 JUNCTION-1009   	55.0        	2.50165     	PATTERN-1       	;
 JUNCTION-10090  	7.944551    	0.5125      	PATTERN-1       	;
 JUNCTION-10091  	68.943775   	1.79087     	PATTERN-1       	;
 JUNCTION-10092  	64.665203   	2.23385     	PATTERN-1       	;
 JUNCTION-10093  	67.720005   	2.7435      	PATTERN-1       	;
 JUNCTION-10094  	59.097083   	2.55155     	PATTERN-1       	;
 JUNCTION-10095  	22.5        	0.0         	PATTERN-1       	;
 JUNCTION-10096  	15.0        	0.0         	PATTERN-1       	;
 JUNCTION-10097  	72.152942   	0.38449     	PATTERN-1       	;
 JUNCTION-10098  	21.393088   	4.19596     	PATTERN-1       	;
 JUNCTION-10099  	66.904686   	1.33305     	PATTERN-1       	;
 JUNCTION-101    	30.0        	1.39892     	PATTERN-1       	;
 JUNCTION-1010   	58.165388   	3.49234     	PATTERN-1       	;
 JUNCTION-10100  	63.532785   	0.65157     	PATTERN-1       	;
 JUNCTION-10101  	64.958316   	0.44105     	PATTERN-1       	;
 JUNCTION-10102  	72.579319   	2.1091      	PATTERN-1       	;
 JUNCTION-10103  	70.0        	1.99525     	PATTERN-1       	;
 JUNCTION-10104  	72.5        	1.13249     	PATTERN-1       	;
 JUNCTION-10105  	67.765747   	1.89445     	PATTERN-1       	;
 JUNCTION-10106  	72.5        	1.68825     	PATTERN-1       	;
 JUNCTION-10107  	69.556888   	0.94901     	PATTERN-1       	;
 JUNCTION-10108  	72.650047   	0.16505     	PATTERN-1       	;
 JUNCTION-10109  	67.784416   	1.22291     	PATTERN-1       	;
 JUNCTION-1011   	49.72769    	1.56718     	PATTERN-1       	;
 JUNCTION-10110  	73.883095   	2.63787     	PATTERN-1       	;
 JUNCTION-10111  	74.869822   	0.0         	PATTERN-1       	;
 JUNCTION-10112  	70.682298   	0.0         	PATTERN-1       	;
 JUNCTION-10113  	73.075793   	0.40957     	PATTERN-1       	;
 JUNCTION-10114  	68.475489   	3.22322     	PATTERN-1       	;
 JUNCTION-10115  	67.145868   	1.68518     	PATTERN-1       	;
 JUNCTION-10116  	72.585649   	0.58291     	PATTERN-1       	;
 JUNCTION-10117  	73.801767   	2.32717     	PATTERN-1       	;
 JUNCTION-10118  	72.035749   	0.65464     	PATTERN-1       	;
 JUNCTION-10119  	65.0        	0.22461     	PATTERN-1       	;
 JUNCTION-1012   	83.023576   	0.91041     	PATTERN-1       	;
 JUNCTION-10120  	72.57026    	0.72325     	PATTERN-1       	;
 JUNCTION-10121  	72.304414   	1.95401     	PATTERN-1       	;
 JUNCTION-10122  	73.331678   	2.04137     	PATTERN-1       	;
 JUNCTION-10123  	71.679446   	0.86302     	PATTERN-1       	;
 JUNCTION-10124  	75.0        	12.68705    	PATTERN-1       	;
 JUNCTION-10125  	75.0        	0.25709     	PATTERN-1       	;
 JUNCTION-10126  	75.0        	0.0         	PATTERN-1       	;
 JUNCTION-10127  	79.727704   	0.0         	PATTERN-1       	;
 JUNCTION-10128  	79.321806   	0.0         	PATTERN-1       	;
 JUNCTION-10129  	75.42337    	0.59052     	PATTERN-1       	;
 JUNCTION-1013   	52.370534   	2.72254     	PATTERN-1       	;
 JUNCTION-10130  	55.0        	0.19362     	PATTERN-1       	;
 JUNCTION-10131  	78.697135   	0.0         	PATTERN-1       	;
 JUNCTION-10132  	75.0        	1.00767     	PATTERN-1       	;
 JUNCTION-10133  	75.0        	0.2513      	PATTERN-1       	;
 JUNCTION-10134  	75.0        	0.0         	PATTERN-1       	;
 JUNCTION-10135  	75.0        	0.0         	PATTERN-1       	;
 JUNCTION-10136  	25.162735   	0.33432     	PATTERN-1       	;
 JUNCTION-10137  	25.0        	0.11856     	PATTERN-1       	;
 JUNCTION-10138  	25.0        	0.0         	PATTERN-1       	;
 JUNCTION-10139  	15.0        	0.35013     	PATTERN-1       	;
 JUNCTION-1014   	55.0        	2.26081     	PATTERN-1       	;
 JUNCTION-10140  	10.0        	0.0         	PATTERN-1       	;
 JUNCTION-10141  	55.0        	0.54145     	PATTERN-1       	;
 JUNCTION-10142  	9.7         	0.20513     	PATTERN-1       	;
 JUNCTION-10143  	12.5        	0.29922     	PATTERN-1       	;
 JUNCTION-10144  	5.0         	1.63497     	PATTERN-1       	;
 JUNCTION-10145  	15.0        	0.59169     	PATTERN-1       	;
 JUNCTION-10146  	74.765798   	1.14193     	PATTERN-1       	;
 JUNCTION-10147  	78.2041     	1.56006     	PATTERN-1       	;
 JUNCTION-10148  	70.939892   	0.6758      	PATTERN-1       	;
 JUNCTION-10149  	71.974032   	0.6966      	PATTERN-1       	;
 JUNCTION-1015   	55.0        	2.18373     	PATTERN-1       	;
 JUNCTION-10150  	75.0        	2.50121     	PATTERN-1       	;
 JUNCTION-10151  	75.0        	3.51079     	PATTERN-1       	;
 JUNCTION-10152  	57.03102    	0.6472      	PATTERN-1       	;
 JUNCTION-10153  	20.0        	0.0         	PATTERN-1       	;
 JUNCTION-10154  	12.5        	1.47902     	PATTERN-1       	;
 JUNCTION-10155  	10.0        	0.54658     	PATTERN-1       	;
 JUNCTION-10156  	7.846469    	0.74551     	PATTERN-1       	;
 JUNCTION-10157  	6.464377    	0.32132     	PATTERN-1       	;
 JUNCTION-10158  	10.0        	0.36832     	PATTERN-1       	;
 JUNCTION-10159  	29.818029   	1.38649     	PATTERN-1       	;
 JUNCTION-1016   	50.0        	0.82325     	PATTERN-1       	;
 JUNCTION-10160  	31.026566   	0.76243     	PATTERN-1       	;
 JUNCTION-10161  	27.770946   	2.89299     	PATTERN-1       	;
 JUNCTION-10162  	75.0        	1.31566     	PATTERN-1       	;
 JUNCTION-10163  	61.550159   	2.34712     	PATTERN-1       	;
 JUNCTION-10164  	75.0        	0.56107     	PATTERN-1       	;
 JUNCTION-10165  	75.0        	0.3509      	PATTERN-1       	;
 JUNCTION-10166  	75.0        	0.99766     	PATTERN-1       	;
 JUNCTION-10167  	75.0        	0.82518     	PATTERN-1       	;
 JUNCTION-10168  	77.5        	1.38604     	PATTERN-1       	;
 JUNCTION-10169  	75.0        	0.86545     	PATTERN-1       	;
 JUNCTION-1017   	40.837703   	0.68486     	PATTERN-1       	;
 JUNCTION-10170  	5.720764    	0.22817     	PATTERN-1       	;
 JUNCTION-10171  	75.0        	2.30864     	PATTERN-1       	;
 JUNCTION-10172  	75.0        	2.08643     	PATTERN-1       	;
 JUNCTION-10173  	75.0        	0.54966     	PATTERN-1       	;
 JUNCTION-10174  	59.841388   	1.0623      	PATTERN-1       	;
 JUNCTION-10175  	75.0        	0.8321      	PATTERN-1       	;
 JUNCTION-10176  	75.0        	2.506       	PATTERN-1       	;
 JUNCTION-10177  	75.0        	1.52547     	PATTERN-1       	;
 JUNCTION-10178  	75.0        	2.32559     	PATTERN-1       	;
 JUNCTION-10179  	75.0        	1.98258     	PATTERN-1       	;
 JUNCTION-1018   	77.576686   	0.38196     	PATTERN-1       	;
 JUNCTION-10180  	72.365085   	3.03341     	PATTERN-1       	;
 JUNCTION-10181  	71.633304   	2.15796     	PATTERN-1       	;
 JUNCTION-10182  	68.935061   	0.93196     	PATTERN-1       	;
 JUNCTION-10183  	71.686592   	2.28734     	PATTERN-1       	;
 JUNCTION-10184  	75.0        	0.0         	PATTERN-1       	;
 JUNCTION-10185  	63.178917   	2.28079     	PATTERN-1       	;
 JUNCTION-10186  	57.92773    	0.30968     	PATTERN-1       	;
 JUNCTION-10187  	73.975878   	1.78985     	PATTERN-1       	;
 JUNCTION-10188  	74.893626   	1.63283     	PATTERN-1       	;
 JUNCTION-10189  	75.0        	2.24534     	PATTERN-1       	;
 JUNCTION-1019   	62.27665    	1.64875     	PATTERN-1       	;
 JUNCTION-10190  	75.518495   	3.80047     	PATTERN-1       	;
 JUNCTION-10191  	75.0        	0.70777     	PATTERN-1       	;
 JUNCTION-10192  	73.491047   	2.78055     	PATTERN-1       	;
 JUNCTION-10193  	27.5        	0.56004     	PATTERN-1       	;
 JUNCTION-10194  	29.757828   	0.78573     	PATTERN-1       	;
 JUNCTION-10195  	22.5        	0.74439     	PATTERN-1       	;
 JUNCTION-10196  	27.778389   	0.30686     	PATTERN-1       	;
 JUNCTION-10197  	55.800693   	2.06099     	PATTERN-1       	;
 JUNCTION-10198  	32.050969   	0.24928     	PATTERN-1       	;
 JUNCTION-10199  	75.190058   	0.56791     	PATTERN-1       	;
 JUNCTION-102    	56.0        	4.56284     	PATTERN-1       	;
 JUNCTION-1020   	65.0        	2.26603     	PATTERN-1       	;
 JUNCTION-10200  	73.026789   	2.50514     	PATTERN-1       	;
 JUNCTION-10201  	32.413618   	0.90433     	PATTERN-1       	;
 JUNCTION-10202  	28.716403   	1.74097     	PATTERN-1       	;
 JUNCTION-10203  	34.248923   	2.48992     	PATTERN-1       	;
 JUNCTION-10204  	30.0        	1.16653     	PATTERN-1       	;
 JUNCTION-10205  	35.0        	1.7398      	PATTERN-1       	;
 JUNCTION-10206  	38.380759   	1.43274     	PATTERN-1       	;
 JUNCTION-10207  	22.39554    	2.32889     	PATTERN-1       	;
 JUNCTION-10208  	56.317106   	1.58747     	PATTERN-1       	;
 JUNCTION-10209  	29.827575   	2.09226     	PATTERN-1       	;
 JUNCTION-1021   	68.401878   	3.78004     	PATTERN-1       	;
 JUNCTION-10210  	55.783502   	0.97598     	PATTERN-1       	;
 JUNCTION-10211  	68.468523   	0.0         	PATTERN-1       	;
 JUNCTION-10212  	27.5        	0.0         	PATTERN-1       	;
 JUNCTION-10213  	22.5        	0.0         	PATTERN-1       	;
 JUNCTION-10214  	36.962665   	0.44383     	PATTERN-1       	;
 JUNCTION-10215  	33.592123   	0.0         	PATTERN-1       	;
 JUNCTION-10216  	27.5        	1.47941     	PATTERN-1       	;
 JUNCTION-10217  	20.0        	0.0         	PATTERN-1       	;
 JUNCTION-10218  	20.0        	0.1438      	PATTERN-1       	;
 JUNCTION-10219  	50.0        	1.55348     	PATTERN-1       	;
 JUNCTION-1022   	66.10134    	2.31177     	PATTERN-1       	;
 JUNCTION-10220  	30.510436   	0.0         	PATTERN-1       	;
 JUNCTION-10221  	28.039414   	2.04186     	PATTERN-1       	;
 JUNCTION-10222  	34.08237    	1.89794     	PATTERN-1       	;
 JUNCTION-10223  	32.640508   	0.46055     	PATTERN-1       	;
 JUNCTION-10224  	25.0        	0.1203      	PATTERN-1       	;
 JUNCTION-10225  	40.0        	0.21816     	PATTERN-1       	;
 JUNCTION-10226  	40.0        	1.63783     	PATTERN-1       	;
 JUNCTION-10227  	20.0        	0.47686     	PATTERN-1       	;
 JUNCTION-10228  	25.0        	0.49647     	PATTERN-1       	;
 JUNCTION-10229  	20.0        	1.07895     	PATTERN-1       	;
 JUNCTION-1023   	79.279853   	1.37594     	PATTERN-1       	;
 JUNCTION-10230  	50.0        	8.10245     	PATTERN-1       	;
 JUNCTION-10231  	31.534099   	0.21683     	PATTERN-1       	;
 JUNCTION-10232  	30.0        	1.13909     	PATTERN-1       	;
 JUNCTION-10233  	36.480631   	0.24147     	PATTERN-1       	;
 JUNCTION-10234  	27.5        	1.44904     	PATTERN-1       	;
 JUNCTION-10235  	24.493993   	2.44121     	PATTERN-1       	;
 JUNCTION-10236  	21.133162   	1.95915     	PATTERN-1       	;
 JUNCTION-10237  	15.0        	0.50786     	PATTERN-1       	;
 JUNCTION-10238  	18.313348   	12.89994    	PATTERN-1       	;
 JUNCTION-10239  	15.0        	0.89364     	PATTERN-1       	;
 JUNCTION-1024   	70.648474   	0.10885     	PATTERN-1       	;
 JUNCTION-10240  	26.92671    	1.89349     	PATTERN-1       	;
 JUNCTION-10241  	50.0        	1.61499     	PATTERN-1       	;
 JUNCTION-10242  	28.021983   	0.0         	PATTERN-1       	;
 JUNCTION-10243  	30.0        	2.43778     	PATTERN-1       	;
 JUNCTION-10244  	26.55912    	2.21522     	PATTERN-1       	;
 JUNCTION-10245  	30.0        	0.62709     	PATTERN-1       	;
 JUNCTION-10246  	18.582557   	7.28851     	PATTERN-1       	;
 JUNCTION-10247  	29.658961   	0.91413     	PATTERN-1       	;
 JUNCTION-10248  	32.379543   	0.04362     	PATTERN-1       	;
 JUNCTION-10249  	32.127816   	0.79393     	PATTERN-1       	;
 JUNCTION-1025   	50.0        	0.16474     	PATTERN-1       	;
 JUNCTION-10250  	43.287671   	0.40469     	PATTERN-1       	;
 JUNCTION-10251  	44.894      	5.42044     	PATTERN-1       	;
 JUNCTION-10252  	46.813979   	0.46606     	PATTERN-1       	;
 JUNCTION-10253  	28.762328   	0.57968     	PATTERN-1       	;
 JUNCTION-10254  	15.0        	0.0         	PATTERN-1       	;
 JUNCTION-10255  	15.0        	0.32018     	PATTERN-1       	;
 JUNCTION-10256  	16.444154   	1.33349     	PATTERN-1       	;
 JUNCTION-10257  	7.5         	0.52214     	PATTERN-1       	;
 JUNCTION-10258  	12.92891    	1.22919     	PATTERN-1       	;
 JUNCTION-10259  	15.0        	1.07403     	PATTERN-1       	;
 JUNCTION-1026   	45.0        	0.24596     	PATTERN-1       	;
 JUNCTION-10260  	19.448363   	0.59647     	PATTERN-1       	;
 JUNCTION-10261  	13.906572   	0.0         	PATTERN-1       	;
 JUNCTION-10262  	3.17738     	0.79104     	PATTERN-1       	;
 JUNCTION-10263  	44.502911   	2.18189     	PATTERN-1       	;
 JUNCTION-10264  	13.055718   	0.02466     	PATTERN-1       	;
 JUNCTION-10265  	2.5         	0.0         	PATTERN-1       	;
 JUNCTION-10266  	13.806435   	0.22615     	PATTERN-1       	;
 JUNCTION-10267  	9.557553    	0.29386     	PATTERN-1       	;
 JUNCTION-10268  	17.79408    	0.06631     	PATTERN-1       	;
 JUNCTION-10269  	23.285809   	0.46041     	PATTERN-1       	;
 JUNCTION-1027   	30.0        	0.0         	PATTERN-1       	;
 JUNCTION-10270  	26.99816    	2.96661     	PATTERN-1       	;
 JUNCTION-10271  	20.0        	0.27587     	PATTERN-1       	;
 JUNCTION-10272  	25.0        	0.63581     	PATTERN-1       	;
 JUNCTION-10273  	26.700758   	0.92655     	PATTERN-1       	;
 JUNCTION-10274  	53.174027   	1.38615     	PATTERN-1       	;
 JUNCTION-10275  	20.0        	0.2998      	PATTERN-1       	;
 JUNCTION-10276  	24.030919   	0.6016      	PATTERN-1       	;
 JUNCTION-10277  	16.467572   	0.5452      	PATTERN-1       	;
 JUNCTION-10278  	12.028649   	0.0         	PATTERN-1       	;
 JUNCTION-10279  	12.396135   	0.0         	PATTERN-1       	;
 JUNCTION-1028   	27.660862   	0.0         	PATTERN-1       	;
 JUNCTION-10280  	21.624549   	0.41442     	PATTERN-1       	;
 JUNCTION-10281  	22.429804   	0.23614     	PATTERN-1       	;
 JUNCTION-10282  	20.0        	3.68295     	PATTERN-1       	;
 JUNCTION-10283  	20.0        	2.04497     	PATTERN-1       	;
 JUNCTION-10284  	26.822558   	1.35638     	PATTERN-1       	;
 JUNCTION-10285  	53.418562   	0.41021     	PATTERN-1       	;
 JUNCTION-10286  	25.0        	4.67334     	PATTERN-1       	;
 JUNCTION-10287  	25.0        	2.66531     	PATTERN-1       	;
 JUNCTION-10288  	25.0        	1.08547     	PATTERN-1       	;
 JUNCTION-10289  	35.907845   	2.00263     	PATTERN-1       	;
 JUNCTION-1029   	35.342021   	2.23356     	PATTERN-1       	;
 JUNCTION-10290  	23.233203   	1.09268     	PATTERN-1       	;
 JUNCTION-10291  	17.370078   	0.23886     	PATTERN-1       	;
 JUNCTION-10292  	13.107795   	0.52486     	PATTERN-1       	;
 JUNCTION-10293  	36.715512   	0.72753     	PATTERN-1       	;
 JUNCTION-10294  	37.261791   	1.0651      	PATTERN-1       	;
 JUNCTION-10295  	29.945748   	0.6726      	PATTERN-1       	;
 JUNCTION-10296  	30.0        	1.93045     	PATTERN-1       	;
 JUNCTION-10297  	62.754073   	1.81773     	PATTERN-1       	;
 JUNCTION-10298  	51.689411   	1.36508     	PATTERN-1       	;
 JUNCTION-10299  	39.398773   	0.05804     	PATTERN-1       	;
 JUNCTION-103    	30.0        	0.78478     	PATTERN-1       	;
 JUNCTION-1030   	33.612418   	2.10816     	PATTERN-1       	;
 JUNCTION-10300  	40.0        	0.47436     	PATTERN-1       	;
 JUNCTION-10301  	35.0        	0.52871     	PATTERN-1       	;
 JUNCTION-10302  	17.868924   	0.4261      	PATTERN-1       	;
 JUNCTION-10303  	19.124547   	0.23055     	PATTERN-1       	;
 JUNCTION-10304  	23.642326   	3.04732     	PATTERN-1       	;
 JUNCTION-10305  	17.5        	0.09387     	PATTERN-1       	;
 JUNCTION-10306  	15.0        	0.85929     	PATTERN-1       	;
 JUNCTION-10307  	56.442485   	1.35945     	PATTERN-1       	;
 JUNCTION-10308  	62.309228   	2.14888     	PATTERN-1       	;
 JUNCTION-10309  	50.037159   	0.78035     	PATTERN-1       	;
 JUNCTION-1031   	35.0        	2.92472     	PATTERN-1       	;
 JUNCTION-10310  	49.764196   	2.22455     	PATTERN-1       	;
 JUNCTION-10311  	40.040885   	1.72891     	PATTERN-1       	;
 JUNCTION-10312  	46.028609   	2.57305     	PATTERN-1       	;
 JUNCTION-10313  	62.746597   	3.05164     	PATTERN-1       	;
 JUNCTION-10314  	48.800925   	2.29739     	PATTERN-1       	;
 JUNCTION-10315  	65.0        	1.92911     	PATTERN-1       	;
 JUNCTION-10316  	65.0        	0.99056     	PATTERN-1       	;
 JUNCTION-10317  	67.5        	0.98275     	PATTERN-1       	;
 JUNCTION-10318  	67.5        	0.86911     	PATTERN-1       	;
 JUNCTION-10319  	64.916296   	1.20671     	PATTERN-1       	;
 JUNCTION-1032   	35.0        	1.60388     	PATTERN-1       	;
 JUNCTION-10320  	42.037602   	1.87605     	PATTERN-1       	;
 JUNCTION-10321  	62.508438   	2.48278     	PATTERN-1       	;
 JUNCTION-10322  	54.937255   	1.07203     	PATTERN-1       	;
 JUNCTION-10323  	53.940815   	1.158       	PATTERN-1       	;
 JUNCTION-10324  	52.476064   	1.08044     	PATTERN-1       	;
 JUNCTION-10325  	59.523806   	1.80437     	PATTERN-1       	;
 JUNCTION-10326  	68.339685   	1.40752     	PATTERN-1       	;
 JUNCTION-10327  	65.0        	0.91841     	PATTERN-1       	;
 JUNCTION-10328  	62.5        	2.95515     	PATTERN-1       	;
 JUNCTION-10329  	69.370194   	0.71429     	PATTERN-1       	;
 JUNCTION-1033   	35.0        	1.54165     	PATTERN-1       	;
 JUNCTION-10330  	65.984764   	0.35955     	PATTERN-1       	;
 JUNCTION-10331  	64.947277   	0.2097      	PATTERN-1       	;
 JUNCTION-10332  	63.055609   	1.46403     	PATTERN-1       	;
 JUNCTION-10333  	60.0        	0.8174      	PATTERN-1       	;
 JUNCTION-10334  	58.940249   	0.32437     	PATTERN-1       	;
 JUNCTION-10335  	60.0        	1.14839     	PATTERN-1       	;
 JUNCTION-10336  	65.0        	3.75602     	PATTERN-1       	;
 JUNCTION-10337  	64.969997   	1.08315     	PATTERN-1       	;
 JUNCTION-10338  	55.98555    	0.52188     	PATTERN-1       	;
 JUNCTION-10339  	19.225789   	2.16078     	PATTERN-1       	;
 JUNCTION-1034   	95.079802   	0.21057     	PATTERN-1       	;
 JUNCTION-10340  	21.593142   	0.88932     	PATTERN-1       	;
 JUNCTION-10341  	35.644642   	0.75455     	PATTERN-1       	;
 JUNCTION-10342  	70.0        	3.55197     	PATTERN-1       	;
 JUNCTION-10343  	37.545851   	3.49857     	PATTERN-1       	;
 JUNCTION-10344  	42.203743   	2.76229     	PATTERN-1       	;
 JUNCTION-10345  	49.599202   	1.27857     	PATTERN-1       	;
 JUNCTION-10346  	42.5        	3.78815     	PATTERN-1       	;
 JUNCTION-10347  	37.549662   	1.14936     	PATTERN-1       	;
 JUNCTION-10348  	48.498512   	0.6677      	PATTERN-1       	;
 JUNCTION-10349  	57.041661   	1.05568     	PATTERN-1       	;
 JUNCTION-1035   	43.732671   	0.19695     	PATTERN-1       	;
 JUNCTION-10350  	47.5        	0.09456     	PATTERN-1       	;
 JUNCTION-10351  	57.5        	0.27838     	PATTERN-1       	;
 JUNCTION-10352  	47.216873   	2.69584     	PATTERN-1       	;
 JUNCTION-10353  	70.0        	4.12491     	PATTERN-1       	;
 JUNCTION-10354  	46.977584   	2.41526     	PATTERN-1       	;
 JUNCTION-10355  	52.926546   	0.33775     	PATTERN-1       	;
 JUNCTION-10356  	43.531419   	2.48488     	PATTERN-1       	;
 JUNCTION-10357  	32.880406   	1.42808     	PATTERN-1       	;
 JUNCTION-10358  	50.0        	0.0         	PATTERN-1       	;
 JUNCTION-10359  	47.319792   	0.83255     	PATTERN-1       	;
 JUNCTION-1036   	33.606454   	0.11549     	PATTERN-1       	;
 JUNCTION-10360  	50.0        	0.0         	PATTERN-1       	;
 JUNCTION-10361  	48.805067   	0.24664     	PATTERN-1       	;
 JUNCTION-10362  	30.0        	1.9563      	PATTERN-1       	;
 JUNCTION-10363  	30.0        	1.13655     	PATTERN-1       	;
 JUNCTION-10364  	62.5        	1.05979     	PATTERN-1       	;
 JUNCTION-10365  	43.633258   	1.65998     	PATTERN-1       	;
 JUNCTION-10366  	49.617301   	3.65673     	PATTERN-1       	;
 JUNCTION-10367  	53.665685   	4.67081     	PATTERN-1       	;
 JUNCTION-10368  	45.0        	1.29944     	PATTERN-1       	;
 JUNCTION-10369  	40.0        	1.26823     	PATTERN-1       	;
 JUNCTION-1037   	37.792156   	1.46613     	PATTERN-1       	;
 JUNCTION-10370  	45.0        	1.25451     	PATTERN-1       	;
 JUNCTION-10371  	48.380087   	0.13737     	PATTERN-1       	;
 JUNCTION-10372  	45.845211   	0.08383     	PATTERN-1       	;
 JUNCTION-10373  	53.047155   	3.95993     	PATTERN-1       	;
 JUNCTION-10374  	32.5        	0.0         	PATTERN-1       	;
 JUNCTION-10375  	62.374998   	0.46489     	PATTERN-1       	;
 JUNCTION-10376  	45.466753   	4.08079     	PATTERN-1       	;
 JUNCTION-10377  	48.387999   	2.30934     	PATTERN-1       	;
 JUNCTION-10378  	45.727668   	0.69203     	PATTERN-1       	;
 JUNCTION-10379  	56.119716   	3.31216     	PATTERN-1       	;
 JUNCTION-1038   	30.0        	0.78621     	PATTERN-1       	;
 JUNCTION-10380  	61.953434   	3.74985     	PATTERN-1       	;
 JUNCTION-10381  	60.995022   	1.72207     	PATTERN-1       	;
 JUNCTION-10382  	51.738316   	3.13686     	PATTERN-1       	;
 JUNCTION-10383  	60.0        	2.96774     	PATTERN-1       	;
 JUNCTION-10384  	30.125911   	0.0         	PATTERN-1       	;
 JUNCTION-10385  	27.5        	0.67543     	PATTERN-1       	;
 JUNCTION-10386  	57.199809   	1.47234     	PATTERN-1       	;
 JUNCTION-10387  	25.0        	0.0         	PATTERN-1       	;
 JUNCTION-10388  	25.0        	0.85676     	PATTERN-1       	;
 JUNCTION-10389  	36.666133   	2.79712     	PATTERN-1       	;
 JUNCTION-1039   	40.0        	0.0         	PATTERN-1       	;
 JUNCTION-10390  	40.0        	2.38945     	PATTERN-1       	;
 JUNCTION-10391  	28.629762   	2.68857     	PATTERN-1       	;
 JUNCTION-10392  	32.5        	1.99113     	PATTERN-1       	;
 JUNCTION-10393  	22.5        	3.4428      	PATTERN-1       	;
 JUNCTION-10394  	45.825459   	2.82495     	PATTERN-1       	;
 JUNCTION-10395  	24.42061    	3.19696     	PATTERN-1       	;
 JUNCTION-10396  	25.0        	0.64685     	PATTERN-1       	;
 JUNCTION-10397  	57.994415   	0.91296     	PATTERN-1       	;
 JUNCTION-10398  	25.70466    	1.68134     	PATTERN-1       	;
 JUNCTION-10399  	22.471342   	1.73663     	PATTERN-1       	;
 JUNCTION-104    	30.0        	0.28723     	PATTERN-1       	;
 JUNCTION-1040   	40.0        	0.22551     	PATTERN-1       	;
 JUNCTION-10400  	27.5        	2.87174     	PATTERN-1       	;
 JUNCTION-10401  	27.666444   	1.63055     	PATTERN-1       	;
 JUNCTION-10402  	27.5        	1.55924     	PATTERN-1       	;
 JUNCTION-10403  	27.407377   	1.54304     	PATTERN-1       	;
 JUNCTION-10404  	26.571364   	1.45244     	PATTERN-1       	;
 JUNCTION-10405  	27.5        	1.46915     	PATTERN-1       	;
 JUNCTION-10406  	28.449467   	1.07636     	PATTERN-1       	;
 JUNCTION-10407  	29.904154   	0.85176     	PATTERN-1       	;
 JUNCTION-10408  	64.179254   	1.37878     	PATTERN-1       	;
 JUNCTION-10409  	65.0        	1.8775      	PATTERN-1       	;
 JUNCTION-1041   	40.0        	1.46159     	PATTERN-1       	;
 JUNCTION-10410  	28.897016   	0.72345     	PATTERN-1       	;
 JUNCTION-10411  	13.639548   	1.84675     	PATTERN-1       	;
 JUNCTION-10412  	25.0        	0.65677     	PATTERN-1       	;
 JUNCTION-10413  	23.712664   	1.85808     	PATTERN-1       	;
 JUNCTION-10414  	16.322612   	1.15188     	PATTERN-1       	;
 JUNCTION-10415  	12.177346   	1.21934     	PATTERN-1       	;
 JUNCTION-10416  	29.817149   	1.64745     	PATTERN-1       	;
 JUNCTION-10417  	30.722473   	2.66297     	PATTERN-1       	;
 JUNCTION-10418  	25.0        	2.20494     	PATTERN-1       	;
 JUNCTION-10419  	25.0        	1.64663     	PATTERN-1       	;
 JUNCTION-1042   	72.5        	0.25778     	PATTERN-1       	;
 JUNCTION-10420  	65.0        	1.80754     	PATTERN-1       	;
 JUNCTION-10421  	25.0        	0.42683     	PATTERN-1       	;
 JUNCTION-10422  	32.375567   	1.74383     	PATTERN-1       	;