[TITLE]
Example 1
Post-Development Runoff

[OPTIONS]
FLOW_UNITS           CFS
INFILTRATION         HORTON
FLOW_ROUTING         KINWAVE
START_DATE           01/01/2007
START_TIME           00:00:00
REPORT_START_DATE    01/01/2007
REPORT_START_TIME    00:00:00
END_DATE             01/01/2007
END_TIME             12:00:00
SWEEP_START          01/01
SWEEP_END            12/31
DRY_DAYS             0
REPORT_STEP          00:01:00
WET_STEP             00:01:00
DRY_STEP             01:00:00
ROUTING_STEP         0:01:00 
ALLOW_PONDING        NO
INERTIAL_DAMPING     PARTIAL
VARIABLE_STEP        0.75
LENGTHENING_STEP     0
MIN_SURFAREA         0
NORMAL_FLOW_LIMITED  SLOPE
SKIP_STEADY_STATE    NO
FORCE_MAIN_EQUATION  H-W
LINK_OFFSETS         DEPTH
MIN_SLOPE            0

[EVAPORATION]
;;Type       Parameters
;;---------- ----------
CONSTANT     0.0

[RAINGAGES]
;;               Rain      Time   Snow   Data      
;;Name           Type      Intrvl Catch  Source    
;;-------------- --------- ------ ------ ----------
RainGage         INTENSITY 0:05   1.0    TIMESERIES 2-yr            

[SUBCATCHMENTS]
;;                                                 Total    Pcnt.             Pcnt.    Curb     Snow    
;;Name           Raingage         Outlet           Area     Imperv   Width    Slope    Length   Pack    
;;-------------- ---------------- ---------------- -------- -------- -------- -------- -------- --------
S1               RainGage         O1               4.55     56.8     1587     2        0                        
S2               RainGage         O1               4.74     63.0     1653     2        0                        
S3               RainGage         O1               3.74     39.5     1456     3.1      0                        
S4               RainGage         O1               6.79     49.9     2331     3.1      0                        
S5               RainGage         O1               4.79     87.7     1670     2        0                        
S6               RainGage         O1               1.98     95.0     690      2        0                        
S7               RainGage         O1               2.33     0.0      907      3.1      0                        

[SUBAREAS]
;;Subcatchment   N-Imperv   N-Perv     S-Imperv   S-Perv     PctZero    RouteTo    PctRouted 
;;-------------- ---------- ---------- ---------- ---------- ---------- ---------- ----------
S1               0.015      0.24       0.06       0.3        25         OUTLET    
S2               0.015      0.24       0.06       0.3        25         OUTLET    
S3               0.015      0.24       0.06       0.3        25         OUTLET    
S4               0.015      0.24       0.06       0.3        25         OUTLET    
S5               0.015      0.24       0.06       0.3        25         OUTLET    
S6               0.015      0.24       0.06       0.3        25         OUTLET    
S7               0.015      0.24       0.06       0.3        25         OUTLET    

[INFILTRATION]
;;Subcatchment   MaxRate    MinRate    Decay      DryTime    MaxInfil  
;;-------------- ---------- ---------- ---------- ---------- ----------
S1               4.5        0.2        6.5        7          0         
S2               4.5        0.2        6.5        7          0         
S3               4.5        0.2        6.5        7          0         
S4               4.5        0.2        6.5        7          0         
S5               4.5        0.2        6.5        7          0         
S6               4.5        0.2        6.5        7          0         
S7               4.5        0.2        6.5        7          0         

[OUTFALLS]
;;               Invert     Outfall    Stage/Table      Tide
;;Name           Elev.      Type       Time Series      Gate
;;-------------- ---------- ---------- ---------------- ----
O1               4962       FREE                        NO

[TIMESERIES]
;;Name           Date       Time       Value     
;;-------------- ---------- ---------- ----------
2-yr                        0:00       0.29      
2-yr                        0:05       0.33      
2-yr                        0:10       0.38      
2-yr                        0:15       0.64      
2-yr                        0:20       0.81      
2-yr                        0:25       1.57      
2-yr                        0:30       2.85      
2-yr                        0:35       1.18      
2-yr                        0:40       0.71      
2-yr                        0:45       0.42      
2-yr                        0:50       0.35      
2-yr                        0:55       0.3       
2-yr                        1:00       0.2       
2-yr                        1:05       0.19      
2-yr                        1:10       0.18      
2-yr                        1:15       0.17      
2-yr                        1:20       0.17      
2-yr                        1:25       0.16      
2-yr                        1:30       0.15      
2-yr                        1:35       0.15      
2-yr                        1:40       0.14      
2-yr                        1:45       0.14      
2-yr                        1:50       0.13      
2-yr                        1:55       0.13      

10-yr                       0:00       0.49      
10-yr                       0:05       0.56      
10-yr                       0:10       0.65      
10-yr                       0:15       1.09      
10-yr                       0:20       1.39      
10-yr                       0:25       2.69      
10-yr                       0:30       4.87      
10-yr                       0:35       2.02      
10-yr                       0:40       1.21      
10-yr                       0:45       0.71      
10-yr                       0:50       0.6       
10-yr                       0:55       0.52      
10-yr                       1:00       0.39      
10-yr                       1:05       0.37      
10-yr                       1:10       0.35      
10-yr                       1:15       0.34      
10-yr                       1:20       0.32      
10-yr                       1:25       0.31      
10-yr                       1:30       0.3       
10-yr                       1:35       0.29      
10-yr                       1:40       0.28      
10-yr                       1:45       0.27      
10-yr                       1:50       0.26      
10-yr                       1:55       0.25      

100-yr                      0:00       1         
100-yr                      0:05       1.14      
100-yr                      0:10       1.33      
100-yr                      0:15       2.23      
100-yr                      0:20       2.84      
100-yr                      0:25       5.49      
100-yr                      0:30       9.95      
100-yr                      0:35       4.12      
100-yr                      0:40       2.48      
100-yr                      0:45       1.46      
100-yr                      0:50       1.22      
100-yr                      0:55       1.06      
100-yr                      1:00       1         
100-yr                      1:05       0.95      
100-yr                      1:10       0.91      
100-yr                      1:15       0.87      
100-yr                      1:20       0.84      
100-yr                      1:25       0.81      
100-yr                      1:30       0.78      
100-yr                      1:35       0.75      
100-yr                      1:40       0.73      
100-yr                      1:45       0.71      
100-yr                      1:50       0.69      
100-yr                      1:55       0.67      

[REPORT]
INPUT      NO
CONTROLS   NO
SUBCATCHMENTS ALL
NODES ALL
LINKS ALL

[TAGS]

[MAP]
DIMENSIONS 0.000 0.000 1423.000 1475.000
Units      Feet

[COORDINATES]
;;Node           X-Coord            Y-Coord           
;;-------------- ------------------ ------------------
O1               1411.468           477.401           

[VERTICES]
;;Link           X-Coord            Y-Coord           
;;-------------- ------------------ ------------------

[Polygons]
;;Subcatchment   X-Coord            Y-Coord           
;;-------------- ------------------ ------------------
S1               282.657            1334.810          
S1               111.700            1101.604          
S1               172.525            1062.743          
S1               231.660            1027.262          
S1               306.002            990.092           
S1               370.206            959.679           
S1               409.066            946.163           
S1               444.547            936.025           
S1               493.545            924.198           
S1               532.405            915.750           
S1               569.576            907.302           
S1               610.125            897.165           
S1               655.744            897.165           
S1               684.338            1318.700          
S1               651.043            1321.922          
S1               596.269            1332.662          
S1               551.160            1346.624          
S1               495.312            1367.030          
S1               455.573            1384.214          
S1               410.465            1409.991          
S1               386.836            1427.175          
S1               363.208            1442.211          
S2               678.967            1238.149          
S2               673.584            1152.903          
S2               655.744            897.165           
S2               758.808            893.786           
S2               817.943            895.475           
S2               880.458            898.855           
S2               921.007            905.613           
S2               978.453            920.819           
S2               1042.657           937.715           
S2               1103.482           959.679           
S2               1159.238           985.023           
S2               1225.131           1010.367          
S2               1109.646           1274.665          
S2               1052.723           1400.325          
S2               985.061            1370.252          
S2               924.916            1348.772          
S2               861.549            1331.588          
S2               815.367            1325.144          
S2               762.740            1319.774          
S2               719.780            1316.552          
S2               684.338            1317.626          
S3               109.199            1103.258          
S3               141.754            1081.555          
S3               190.586            1051.713          
S3               247.557            1019.158          
S3               304.528            989.317           
S3               354.716            964.900           
S3               398.123            949.980           
S3               490.166            922.509           
S3               474.292            876.374           
S3               501.993            816.065           
S3               556.059            778.895           
S3               488.476            679.210           
S3               422.582            729.897           
S3               282.348            557.560           
S3               179.734            633.927           
S3               153.962            651.561           
S3               107.843            693.610           
S3               71.218             742.443           
S3               48.159             785.849           
S3               31.881             837.394           
S3               29.168             886.226           
S3               31.881             933.702           
S3               38.664             967.613           
S3               50.872             1001.525          
S3               65.793             1035.436          
S3               87.496             1070.704          
S3               109.199            1103.258          
S4               282.348            559.250           
S4               420.893            729.897           
S4               488.476            680.899           
S4               556.828            779.067           
S4               501.213            814.335           
S4               474.292            876.374           
S4               491.718            922.851           
S4               616.511            898.434           
S4               668.056            897.078           
S4               783.355            895.722           
S4               815.909            898.434           
S4               857.959            899.791           
S4               890.595            897.165           
S4               968.316            915.750           
S4               1042.657           937.715           
S4               1074.759           849.857           
S4               1054.484           773.826           
S4               1020.692           702.864           
S4               963.247            623.454           
S4               689.536            256.816           
S5               1301.482           474.258           
S5               1271.677           445.380           
S5               1232.340           393.835           
S5               1241.835           384.340           
S5               1222.844           366.706           
S5               1233.696           355.854           
S5               1026.159           66.931            
S5               1008.525           56.079            
S5               708.750            275.824           
S5               1023.446           704.462           
S5               1150.644           618.812           
S5               1251.203           640.809           
S5               1328.193           519.824           
S6               1334.478           519.824           
S6               1306.266           488.956           
S6               1293.380           474.205           
S6               1232.340           393.835           
S6               1241.835           381.627           
S6               1222.844           365.350           
S6               1232.340           353.142           
S6               1027.516           65.574            
S6               1012.595           56.079            
S6               707.393            273.111           
S6               688.403            254.121           
S6               739.948            218.853           
S6               788.780            159.169           
S6               806.414            106.268           
S6               813.197            1.821             
S6               994.961            12.673            
S6               1228.270           27.594            
S6               1222.844           115.763           
S6               1228.270           167.308           
S6               1241.835           229.705           
S6               1255.399           254.121           
S6               1279.815           302.953           
S6               1309.657           354.498           
S6               1335.430           401.974           
S6               1359.846           448.093           
S6               1370.616           475.830           
S6               1381.615           491.542           
S7               1122.467           968.970           
S7               1174.012           987.282           
S7               1225.557           1005.594          
S7               1377.480           675.977           
S7               1391.044           642.065           
S7               1396.470           598.659           
S7               1381.615           491.542           
S7               1331.336           519.824           
S7               1249.632           640.809           
S7               1150.644           617.241           
S7               1020.733           704.462           
S7               1054.645           772.285           
S7               1076.796           848.212           
S7               1056.370           900.062           
S7               1040.658           937.772           

[SYMBOLS]
;;Gage           X-Coord            Y-Coord           
;;-------------- ------------------ ------------------
RainGage         -50.114            1195.674          


[BACKDROP]
FILE       "Site-Post.JPG"
DIMENSIONS 0.000 0.000 1423.000 1475.000
