[TITLE]
Example 7
Dual Drainage System
Preliminary Design

[OPTIONS]
FLOW_UNITS           CFS
INFILTRATION         HORTON
FLOW_ROUTING         DYNWAVE
START_DATE           01/01/2007
START_TIME           00:00:00
REPORT_START_DATE    01/01/2007
REPORT_START_TIME    00:00:00
END_DATE             01/01/2007
END_TIME             12:00:00
SWEEP_START          01/01
SWEEP_END            12/31
DRY_DAYS             0
REPORT_STEP          00:01:00
WET_STEP             00:01:00
DRY_STEP             01:00:00
ROUTING_STEP         0:00:15 
ALLOW_PONDING        NO
INERTIAL_DAMPING     PARTIAL
VARIABLE_STEP        0.75
LENGTHENING_STEP     0
MIN_SURFAREA         0
NORMAL_FLOW_LIMITED  SLOPE
SKIP_STEADY_STATE    NO
FORCE_MAIN_EQUATION  H-W
LINK_OFFSETS         DEPTH
MIN_SLOPE            0

[EVAPORATION]
;;Type       Parameters
;;---------- ----------
CONSTANT     0.0

[RAINGAGES]
;;               Rain      Time   Snow   Data      
;;Name           Type      Intrvl Catch  Source    
;;-------------- --------- ------ ------ ----------
RainGage         INTENSITY 0:05   1.0    TIMESERIES 2-yr            

[SUBCATCHMENTS]
;;                                                 Total    Pcnt.             Pcnt.    Curb     Snow    
;;Name           Raingage         Outlet           Area     Imperv   Width    Slope    Length   Pack    
;;-------------- ---------------- ---------------- -------- -------- -------- -------- -------- --------
S1               RainGage         Aux1             4.55     56.8     1587     2        0                        
S2               RainGage         Aux2             4.74     63.0     1653     2        0                        
S3               RainGage         Aux3             3.74     39.5     1456     3.1      0                        
S4               RainGage         J7               6.79     49.9     2331     3.1      0                        
S5               RainGage         J10              4.79     87.7     1670     2        0                        
S6               RainGage         J11              1.98     95.0     690      2        0                        
S7               RainGage         J10              2.33     0.0      907      3.1      0                        

[SUBAREAS]
;;Subcatchment   N-Imperv   N-Perv     S-Imperv   S-Perv     PctZero    RouteTo    PctRouted 
;;-------------- ---------- ---------- ---------- ---------- ---------- ---------- ----------
S1               0.015      0.24       0.06       0.3        25         OUTLET    
S2               0.015      0.24       0.06       0.3        25         OUTLET    
S3               0.015      0.24       0.06       0.3        25         OUTLET    
S4               0.015      0.24       0.06       0.3        25         OUTLET    
S5               0.015      0.24       0.06       0.3        25         OUTLET    
S6               0.015      0.24       0.06       0.3        25         OUTLET    
S7               0.015      0.24       0.06       0.3        25         OUTLET    

[INFILTRATION]
;;Subcatchment   MaxRate    MinRate    Decay      DryTime    MaxInfil  
;;-------------- ---------- ---------- ---------- ---------- ----------
S1               4.5        0.2        6.5        7          0         
S2               4.5        0.2        6.5        7          0         
S3               4.5        0.2        6.5        7          0         
S4               4.5        0.2        6.5        7          0         
S5               4.5        0.2        6.5        7          0         
S6               4.5        0.2        6.5        7          0         
S7               4.5        0.2        6.5        7          0         

[JUNCTIONS]
;;               Invert     Max.       Init.      Surcharge  Ponded    
;;Name           Elev.      Depth      Depth      Depth      Area      
;;-------------- ---------- ---------- ---------- ---------- ----------
J1               4969       0          0          0          0         
J2a              4966.7     0          0          0          0         
J2               4965       0          0          0          0         
J3               4973       0          0          0          0         
J4               4965       0          0          0          0         
J5               4965.8     0          0          0          0         
J6               4969       0          0          0          0         
J7               4963.5     0          0          0          0         
J8               4966.5     0          0          0          0         
J9               4964.8     0          0          0          0         
J10              4957.8     0          0          0          0         
J11              4957       0          0          0          0         
Aux1             4975       0          0          0          0         
Aux2             4971.8     0          0          0          0         
Aux3             4968.5     0          0          0          0         

[OUTFALLS]
;;               Invert     Outfall    Stage/Table      Tide
;;Name           Elev.      Type       Time Series      Gate
;;-------------- ---------- ---------- ---------------- ----
O1               4956       FREE                        NO

[CONDUITS]
;;               Inlet            Outlet                      Manning    Inlet      Outlet     Init.      Max.      
;;Name           Node             Node             Length     N          Offset     Offset     Flow       Flow      
;;-------------- ---------------- ---------------- ---------- ---------- ---------- ---------- ---------- ----------
C2a              J2a              J2               157.48     0.016      4          4          0          0         
C2               J2               J11              526.0      0.016      4          6          0          0         
C3               J3               J4               109.0      0.016      0          6          0          0         
C4               J4               J5               133.0      0.05       6          4          0          0         
C5               J5               J6               207.0      0.05       4          0          0          0         
C6               J7               J6               140.0      0.05       8          0          0          0         
C7               J6               J8               95.0       0.016      0          0          0          0         
C8               J8               J9               166.0      0.05       0          0          0          0         
C9               J9               J10              320.0      0.05       0          6          0          0         
C10              J10              J11              145.0      0.05       6          6          0          0         
C11              J11              O1               89.0       0.016      0          0          0          0         
C_Aux1           Aux1             J1               377.31     0.016      0          4          0          0         
C_Aux2           Aux2             J2a              239.41     0.016      0          4          0          0         
C_Aux1to2        J1               Aux2             286.06     0.016      4          0          0          0         
C_Aux3           Aux3             J3               444.75     0.05       6          0          0          0         
P1               J1               J5               185.39     0.016      0          0          0          0         
P2               J2a              J2               157.48     0.016      0          0          0          0         
P3               J2               J11              529.22     0.016      0          0          0          0         
P4               Aux3             J4               567.19     0.016      0          0          0          0         
P5               J5               J4               125.98     0.016      0          0          0          0         
P6               J4               J7               360.39     0.016      0          0          0          0         
P7               J7               J10              507.76     0.016      0          0          0          0         
P8               J10              J11              144.50     0.016      0          0          0          0         

[XSECTIONS]
;;Link           Shape        Geom1            Geom2      Geom3      Geom4      Barrels   
;;-------------- ------------ ---------------- ---------- ---------- ---------- ----------
C2a              IRREGULAR    Half_Street      3          5          5          1                    
C2               IRREGULAR    Half_Street      3          5          5          1                    
C3               CIRCULAR     2.25             0          0          0          1                    
C4               TRAPEZOIDAL  3                5          5          5          1                    
C5               TRAPEZOIDAL  3                5          5          5          1                    
C6               TRAPEZOIDAL  3                5          5          5          1                    
C7               CIRCULAR     3.5              0          0          0          1                    
C8               TRAPEZOIDAL  3                5          5          5          1                    
C9               TRAPEZOIDAL  3                5          5          5          1                    
C10              TRAPEZOIDAL  3                5          5          5          1                    
C11              CIRCULAR     4.75             0          0          0          1                    
C_Aux1           IRREGULAR    Full_Street      3          5          5          1                    
C_Aux2           IRREGULAR    Full_Street      3          5          5          1                    
C_Aux1to2        IRREGULAR    Full_Street      3          5          5          1                    
C_Aux3           TRAPEZOIDAL  3                5          5          5          1                    
P1               CIRCULAR     1                0          0          0          1                    
P2               CIRCULAR     1                0          0          0          1                    
P3               CIRCULAR     1                0          0          0          1                    
P4               CIRCULAR     3                0          0          0          1                    
P5               CIRCULAR     3                0          0          0          1                    
P6               CIRCULAR     3                0          0          0          1                    
P7               CIRCULAR     3                0          0          0          1                    
P8               CIRCULAR     3                0          0          0          1                    

[TRANSECTS]

NC 0.016    0.016    0.016   
X1 Full_Street       7        0.0      0.0      0.0      0.0      0.0      0.0      0.0     
GR 1.3      -40      0.5      -20      0        -20      0.8      0        0        20      
GR 0.5      20       1.3      40      

NC 0.016    0.016    0.016   
X1 Half_Street       5        0.0      0.0      0.0      0.0      0.0      0.0      0.0     
GR 1.3      -40      0.5      -20      0        -20      0.8      0        1.3      0       

[LOSSES]
;;Link           Inlet      Outlet     Average    Flap Gate 
;;-------------- ---------- ---------- ---------- ----------

[TIMESERIES]
;;Name           Date       Time       Value     
;;-------------- ---------- ---------- ----------
2-yr                        0:00       0.29      
2-yr                        0:05       0.33      
2-yr                        0:10       0.38      
2-yr                        0:15       0.64      
2-yr                        0:20       0.81      
2-yr                        0:25       1.57      
2-yr                        0:30       2.85      
2-yr                        0:35       1.18      
2-yr                        0:40       0.71      
2-yr                        0:45       0.42      
2-yr                        0:50       0.35      
2-yr                        0:55       0.3       
2-yr                        1:00       0.2       
2-yr                        1:05       0.19      
2-yr                        1:10       0.18      
2-yr                        1:15       0.17      
2-yr                        1:20       0.17      
2-yr                        1:25       0.16      
2-yr                        1:30       0.15      
2-yr                        1:35       0.15      
2-yr                        1:40       0.14      
2-yr                        1:45       0.14      
2-yr                        1:50       0.13      
2-yr                        1:55       0.13      

10-yr                       0:00       0.49      
10-yr                       0:05       0.56      
10-yr                       0:10       0.65      
10-yr                       0:15       1.09      
10-yr                       0:20       1.39      
10-yr                       0:25       2.69      
10-yr                       0:30       4.87      
10-yr                       0:35       2.02      
10-yr                       0:40       1.21      
10-yr                       0:45       0.71      
10-yr                       0:50       0.6       
10-yr                       0:55       0.52      
10-yr                       1:00       0.39      
10-yr                       1:05       0.37      
10-yr                       1:10       0.35      
10-yr                       1:15       0.34      
10-yr                       1:20       0.32      
10-yr                       1:25       0.31      
10-yr                       1:30       0.3       
10-yr                       1:35       0.29      
10-yr                       1:40       0.28      
10-yr                       1:45       0.27      
10-yr                       1:50       0.26      
10-yr                       1:55       0.25      

100-yr                      0:00       1         
100-yr                      0:05       1.14      
100-yr                      0:10       1.33      
100-yr                      0:15       2.23      
100-yr                      0:20       2.84      
100-yr                      0:25       5.49      
100-yr                      0:30       9.95      
100-yr                      0:35       4.12      
100-yr                      0:40       2.48      
100-yr                      0:45       1.46      
100-yr                      0:50       1.22      
100-yr                      0:55       1.06      
100-yr                      1:00       1         
100-yr                      1:05       0.95      
100-yr                      1:10       0.91      
100-yr                      1:15       0.87      
100-yr                      1:20       0.84      
100-yr                      1:25       0.81      
100-yr                      1:30       0.78      
100-yr                      1:35       0.75      
100-yr                      1:40       0.73      
100-yr                      1:45       0.71      
100-yr                      1:50       0.69      
100-yr                      1:55       0.67      

Inflow_100yr                0:00:15    0         
Inflow_100yr                0:00:30    0         
Inflow_100yr                0:00:45    0         
Inflow_100yr                0:01:00    0         
Inflow_100yr                0:01:15    0         
Inflow_100yr                0:01:30    0         
Inflow_100yr                0:01:45    0         
Inflow_100yr                0:02:00    0         
Inflow_100yr                0:02:15    0         
Inflow_100yr                0:02:30    0         
Inflow_100yr                0:02:45    0.01      
Inflow_100yr                0:03:00    0.01      
Inflow_100yr                0:03:15    0.01      
Inflow_100yr                0:03:30    0.02      
Inflow_100yr                0:03:45    0.02      
Inflow_100yr                0:04:00    0.03      
Inflow_100yr                0:04:15    0.04      
Inflow_100yr                0:04:30    0.06      
Inflow_100yr                0:04:45    0.09      
Inflow_100yr                0:05:00    0.14      
Inflow_100yr                0:05:15    0.22      
Inflow_100yr                0:05:30    0.36      
Inflow_100yr                0:05:45    0.63      
Inflow_100yr                0:06:00    0.84      
Inflow_100yr                0:06:15    1.05      
Inflow_100yr                0:06:30    1.32      
Inflow_100yr                0:06:45    1.66      
Inflow_100yr                0:07:00    2.09      
Inflow_100yr                0:07:15    2.51      
Inflow_100yr                0:07:30    2.96      
Inflow_100yr                0:07:45    3.47      
Inflow_100yr                0:08:00    4.04      
Inflow_100yr                0:08:15    4.65      
Inflow_100yr                0:08:30    5.26      
Inflow_100yr                0:08:45    5.89      
Inflow_100yr                0:09:00    6.55      
Inflow_100yr                0:09:15    7.24      
Inflow_100yr                0:09:30    7.95      
Inflow_100yr                0:09:45    8.63      
Inflow_100yr                0:10:00    9.28      
Inflow_100yr                0:10:15    9.87      
Inflow_100yr                0:10:30    10.47     
Inflow_100yr                0:10:45    11.08     
Inflow_100yr                0:11:00    11.68     
Inflow_100yr                0:11:15    12.27     
Inflow_100yr                0:11:30    12.86     
Inflow_100yr                0:11:45    13.44     
Inflow_100yr                0:12:00    14.01     
Inflow_100yr                0:12:15    14.58     
Inflow_100yr                0:12:30    15.13     
Inflow_100yr                0:12:45    15.67     
Inflow_100yr                0:13:00    16.19     
Inflow_100yr                0:13:15    16.69     
Inflow_100yr                0:13:30    17.14     
Inflow_100yr                0:13:45    17.58     
Inflow_100yr                0:14:00    17.99     
Inflow_100yr                0:14:15    18.37     
Inflow_100yr                0:14:30    18.71     
Inflow_100yr                0:14:45    19.02     
Inflow_100yr                0:15:00    19.29     
Inflow_100yr                0:15:15    19.56     
Inflow_100yr                0:15:30    19.88     
Inflow_100yr                0:15:45    20.27     
Inflow_100yr                0:16:00    20.75     
Inflow_100yr                0:16:15    21.31     
Inflow_100yr                0:16:30    21.96     
Inflow_100yr                0:16:45    22.67     
Inflow_100yr                0:17:00    23.45     
Inflow_100yr                0:17:15    24.26     
Inflow_100yr                0:17:30    25.09     
Inflow_100yr                0:17:45    25.92     
Inflow_100yr                0:18:00    26.75     
Inflow_100yr                0:18:15    27.56     
Inflow_100yr                0:18:30    28.32     
Inflow_100yr                0:18:45    29.03     
Inflow_100yr                0:19:00    29.7      
Inflow_100yr                0:19:15    30.33     
Inflow_100yr                0:19:30    30.91     
Inflow_100yr                0:19:45    31.46     
Inflow_100yr                0:20:00    31.97     
Inflow_100yr                0:20:15    32.46     
Inflow_100yr                0:20:30    33        
Inflow_100yr                0:20:45    33.59     
Inflow_100yr                0:21:00    34.25     
Inflow_100yr                0:21:15    34.95     
Inflow_100yr                0:21:30    35.7      
Inflow_100yr                0:21:45    36.47     
Inflow_100yr                0:22:00    37.26     
Inflow_100yr                0:22:15    38.03     
Inflow_100yr                0:22:30    38.79     
Inflow_100yr                0:22:45    39.51     
Inflow_100yr                0:23:00    40.2      
Inflow_100yr                0:23:15    40.84     
Inflow_100yr                0:23:30    41.44     
Inflow_100yr                0:23:45    42        
Inflow_100yr                0:24:00    42.51     
Inflow_100yr                0:24:15    42.98     
Inflow_100yr                0:24:30    43.41     
Inflow_100yr                0:24:45    43.8      
Inflow_100yr                0:25:00    44.16     
Inflow_100yr                0:25:15    44.61     
Inflow_100yr                0:25:30    45.46     
Inflow_100yr                0:25:45    46.78     
Inflow_100yr                0:26:00    48.53     
Inflow_100yr                0:26:15    50.69     
Inflow_100yr                0:26:30    53.16     
Inflow_100yr                0:26:45    55.87     
Inflow_100yr                0:27:00    58.67     
Inflow_100yr                0:27:15    61.4      
Inflow_100yr                0:27:30    63.97     
Inflow_100yr                0:27:45    66.36     
Inflow_100yr                0:28:00    68.58     
Inflow_100yr                0:28:15    70.57     
Inflow_100yr                0:28:30    72.37     
Inflow_100yr                0:28:45    74        
Inflow_100yr                0:29:00    75.31     
Inflow_100yr                0:29:15    76.5      
Inflow_100yr                0:29:30    77.93     
Inflow_100yr                0:29:45    79.46     
Inflow_100yr                0:30:00    80.83     
Inflow_100yr                0:30:15    82.54     
Inflow_100yr                0:30:30    85.4      
Inflow_100yr                0:30:45    89.27     
Inflow_100yr                0:31:00    94.17     
Inflow_100yr                0:31:15    100.16    
Inflow_100yr                0:31:30    106.03    
Inflow_100yr                0:31:45    109.85    
Inflow_100yr                0:32:00    112.35    
Inflow_100yr                0:32:15    114.9     
Inflow_100yr                0:32:30    118.09    
Inflow_100yr                0:32:45    121.78    
Inflow_100yr                0:33:00    125.65    
Inflow_100yr                0:33:15    129.78    
Inflow_100yr                0:33:30    132.8     
Inflow_100yr                0:33:45    135.17    
Inflow_100yr                0:34:00    138.23    
Inflow_100yr                0:34:15    141.79    
Inflow_100yr                0:34:30    145.13    
Inflow_100yr                0:34:45    148.26    
Inflow_100yr                0:35:00    151.55    
Inflow_100yr                0:35:15    154.17    
Inflow_100yr                0:35:30    155.09    
Inflow_100yr                0:35:45    156.08    
Inflow_100yr                0:36:00    157.15    
Inflow_100yr                0:36:15    157.7     
Inflow_100yr                0:36:30    157.92    
Inflow_100yr                0:36:45    157.96    
Inflow_100yr                0:37:00    157.8     
Inflow_100yr                0:37:15    157.37    
Inflow_100yr                0:37:30    156.75    
Inflow_100yr                0:37:45    156.09    
Inflow_100yr                0:38:00    155.36    
Inflow_100yr                0:38:15    154.56    
Inflow_100yr                0:38:30    153.7     
Inflow_100yr                0:38:45    152.75    
Inflow_100yr                0:39:00    151.7     
Inflow_100yr                0:39:15    150.55    
Inflow_100yr                0:39:30    149.38    
Inflow_100yr                0:39:45    148.25    
Inflow_100yr                0:40:00    146.79    
Inflow_100yr                0:40:15    143.93    
Inflow_100yr                0:40:30    140.84    
Inflow_100yr                0:40:45    138.56    
Inflow_100yr                0:41:00    136.48    
Inflow_100yr                0:41:15    134.07    
Inflow_100yr                0:41:30    131.44    
Inflow_100yr                0:41:45    128.88    
Inflow_100yr                0:42:00    126.58    
Inflow_100yr                0:42:15    124.55    
Inflow_100yr                0:42:30    122.69    
Inflow_100yr                0:42:45    120.92    
Inflow_100yr                0:43:00    119.15    
Inflow_100yr                0:43:15    117.41    
Inflow_100yr                0:43:30    115.74    
Inflow_100yr                0:43:45    114.18    
Inflow_100yr                0:44:00    112.87    
Inflow_100yr                0:44:15    111.76    
Inflow_100yr                0:44:30    110.64    
Inflow_100yr                0:44:45    109.53    
Inflow_100yr                0:45:00    108.45    
Inflow_100yr                0:45:15    107.29    
Inflow_100yr                0:45:30    105.91    
Inflow_100yr                0:45:45    104.2     
Inflow_100yr                0:46:00    102.27    
Inflow_100yr                0:46:15    100.31    
Inflow_100yr                0:46:30    98.18     
Inflow_100yr                0:46:45    95.84     
Inflow_100yr                0:47:00    93.53     
Inflow_100yr                0:47:15    90.04     
Inflow_100yr                0:47:30    89.43     
Inflow_100yr                0:47:45    87.26     
Inflow_100yr                0:48:00    85.25     
Inflow_100yr                0:48:15    83.8      
Inflow_100yr                0:48:30    82.41     
Inflow_100yr                0:48:45    80.75     
Inflow_100yr                0:49:00    79.38     
Inflow_100yr                0:49:15    78.06     
Inflow_100yr                0:49:30    76.75     
Inflow_100yr                0:49:45    75.62     
Inflow_100yr                0:50:00    74.51     
Inflow_100yr                0:50:15    73.47     
Inflow_100yr                0:50:30    72.41     
Inflow_100yr                0:50:45    71.38     
Inflow_100yr                0:51:00    70.37     
Inflow_100yr                0:51:15    69.35     
Inflow_100yr                0:51:30    68.35     
Inflow_100yr                0:51:45    67.37     
Inflow_100yr                0:52:00    66.42     
Inflow_100yr                0:52:15    65.5      
Inflow_100yr                0:52:30    64.59     
Inflow_100yr                0:52:45    63.73     
Inflow_100yr                0:53:00    62.89     
Inflow_100yr                0:53:15    62.09     
Inflow_100yr                0:53:30    61.32     
Inflow_100yr                0:53:45    60.52     
Inflow_100yr                0:54:00    59.8      
Inflow_100yr                0:54:15    58.91     
Inflow_100yr                0:54:30    57.95     
Inflow_100yr                0:54:45    56.93     
Inflow_100yr                0:55:00    55.83     
Inflow_100yr                0:55:15    54.69     
Inflow_100yr                0:55:30    53.56     
Inflow_100yr                0:55:45    52.34     
Inflow_100yr                0:56:00    51.12     
Inflow_100yr                0:56:15    49.94     
Inflow_100yr                0:56:30    48.83     
Inflow_100yr                0:56:45    47.79     
Inflow_100yr                0:57:00    46.82     
Inflow_100yr                0:57:15    45.93     
Inflow_100yr                0:57:30    45.06     
Inflow_100yr                0:57:45    44.36     
Inflow_100yr                0:58:00    43.67     
Inflow_100yr                0:58:15    43.33     
Inflow_100yr                0:58:30    42.53     
Inflow_100yr                0:58:45    41.1      
Inflow_100yr                0:59:00    39.73     
Inflow_100yr                0:59:15    38.61     
Inflow_100yr                0:59:30    37.73     
Inflow_100yr                0:59:45    37.03     
Inflow_100yr                1:00:00    36.45     
Inflow_100yr                1:00:15    35.96     
Inflow_100yr                1:00:30    35.53     
Inflow_100yr                1:00:45    35.16     
Inflow_100yr                1:01:00    34.82     
Inflow_100yr                1:01:15    34.5      
Inflow_100yr                1:01:30    34.21     
Inflow_100yr                1:01:45    33.93     
Inflow_100yr                1:02:00    33.67     
Inflow_100yr                1:02:15    33.41     
Inflow_100yr                1:02:30    33.16     
Inflow_100yr                1:02:45    32.93     
Inflow_100yr                1:03:00    32.7      
Inflow_100yr                1:03:15    32.48     
Inflow_100yr                1:03:30    32.27     
Inflow_100yr                1:03:45    32.07     
Inflow_100yr                1:04:00    31.87     
Inflow_100yr                1:04:15    31.69     
Inflow_100yr                1:04:30    31.51     
Inflow_100yr                1:04:45    31.34     
Inflow_100yr                1:05:00    31.17     
Inflow_100yr                1:05:15    31.01     
Inflow_100yr                1:05:30    30.85     
Inflow_100yr                1:05:45    30.7      
Inflow_100yr                1:06:00    30.54     
Inflow_100yr                1:06:15    30.38     
Inflow_100yr                1:06:30    30.23     
Inflow_100yr                1:06:45    30.07     
Inflow_100yr                1:07:00    29.92     
Inflow_100yr                1:07:15    29.77     
Inflow_100yr                1:07:30    29.62     
Inflow_100yr                1:07:45    29.48     
Inflow_100yr                1:08:00    29.34     
Inflow_100yr                1:08:15    29.2      
Inflow_100yr                1:08:30    29.07     
Inflow_100yr                1:08:45    28.94     
Inflow_100yr                1:09:00    28.82     
Inflow_100yr                1:09:15    28.7      
Inflow_100yr                1:09:30    28.58     
Inflow_100yr                1:09:45    28.47     
Inflow_100yr                1:10:00    28.37     
Inflow_100yr                1:10:15    28.26     
Inflow_100yr                1:10:30    28.16     
Inflow_100yr                1:10:45    28.05     
Inflow_100yr                1:11:00    27.95     
Inflow_100yr                1:11:15    27.84     
Inflow_100yr                1:11:30    27.73     
Inflow_100yr                1:11:45    27.62     
Inflow_100yr                1:12:00    27.52     
Inflow_100yr                1:12:15    27.41     
Inflow_100yr                1:12:30    27.3      
Inflow_100yr                1:12:45    27.2      
Inflow_100yr                1:13:00    27.1      
Inflow_100yr                1:13:15    27        
Inflow_100yr                1:13:30    26.9      
Inflow_100yr                1:13:45    26.81     
Inflow_100yr                1:14:00    26.72     