[TITLE]
TEST2.DAT
FLOW THROUGH A CONSTRICTION

[OPTIONS]
 FLOW_UNITS            CFS
 INFILTRATION          HORTON
 FLOW_ROUTING          DYNWAVE
 START_DATE            01/01/1988
 START_TIME            00:00:00
 REPORT_START_DATE     01/01/1988
 REPORT_START_TIME     00:00:00
 END_DATE              01/01/1988
 END_TIME              06:00:00
 SWEEP_START           01/01
 SWEEP_END             12/31
 DRY_DAYS              0
 REPORT_STEP           00:00:30
 WET_STEP              00:15:00
 DRY_STEP              01:00:00
 ROUTING_STEP          0:00:05 
 ALLOW_PONDING         NO
 INERTIAL_DAMPING      NONE
 VARIABLE_STEP         0.00
 LENGTHENING_STEP      0
 MIN_SURFAREA          0
 NORMAL_FLOW_LIMITED   NO
 SKIP_STEADY_STATE     NO

[JUNCTIONS]
;;                 Invert     Max.       Init.      Surcharge  Ponded    
;;Name             Elev.      Depth      Depth      Depth      Area      
;;------------------------------------------------------------------------
  1                175.00     65.00      .00        .00        0         
  2                174.50     65.50      .00        .00        0         
  3                174.00     64.00      .00        .00        0         
  4                173.50     44.50      .00        .00        0         
  5                173.00     13.00      .00        .00        0         

[OUTFALLS]
;;                 Invert     Outfall    Stage/Table      Tide
;;Name             Elev.      Type       Time Series      Gate
;;------------------------------------------------------------
  6                172.5      FREE                        NO

[CONDUITS]
;;                 Inlet            Outlet                      Manning    Inlet      Outlet     Init.      Maximum
;;Name             Node             Node             Length     N          Height     Height     Flow       Flow
;;------------------------------------------------------------------------------------------------------------------------
  1                1                2                1000       0.02       0          0          0          0         
  2                2                3                1000       0.02       0          0          0          0         
  3                3                4                1000       0.02       0          0          0          0         
  4                4                5                1000       0.02       0          0          0          0         
  5                5                6                1000       0.02       0          0          0          0         

[XSECTIONS]
;;Link             Type         Geom1      Geom2      Geom3      Geom4      Barrels
;;---------------------------------------------------------------------------------
  1                CIRCULAR     12         0          0          0          1         
  2                CIRCULAR     3          0          0          0          1         
  3                CIRCULAR     12         0          0          0          1         
  4                CIRCULAR     3          0          0          0          1         
  5                CIRCULAR     12         0          0          0          1         

[INFLOWS]
;;                                                   Concen   Conversion
;;Node             Parameter        Time Series      /Mass    Factor    
;;----------------------------------------------------------------------
  1                FLOW             FLOW@1                            

[TIMESERIES]
;;Name             Date       Time       Value     
;;-------------------------------------------------
  FLOW@1           01/01/1988 00:00      0.00000   
  FLOW@1                      00:15      50        
  FLOW@1                      03:00      50        
  FLOW@1                      3:15       0         
  FLOW@1                      12:00      0         

[REPORT]
 INPUT     NO
 CONTROLS  NO

[TAGS]

[MAP]
 DIMENSIONS      750.00           945.00           6250.00          1055.00         
 UNITS           None

[COORDINATES]
;;Node             X-Coord          Y-Coord
  1                1000.00          1000.00         
  2                2000.00          1000.00         
  3                3000.00          1000.00         
  4                4000.00          1000.00         
  5                5000.00          1000.00         
  6                6021.59          1022.84         

[VERTICES]
;;Link             X-Coord          Y-Coord
