[OPTIONS]
FLOW_UNITS CFS
INFILTRATION HORTON
FLOW_ROUTING STEADY
LINK_OFFSETS DEPTH
FORCE_MAIN_EQUATION H-W
IGNORE_RAINFALL YES
IGNORE_SNOWMELT YES
IGNORE_GROUNDWATER YES
IGNORE_RDII YES
IGNORE_ROUTING YES
IGNORE_QUALITY YES
ALLOW_PONDING YES
SKIP_STEADY_STATE YES
SYS_FLOW_TOL 0.05
LAT_FLOW_TOL 0.05
START_DATE 01/01/2012
START_TIME 00:00:00
END_DATE 01/01/2012
END_TIME 24:00:00
REPORT_START_DATE 01/01/2012
REPORT_START_TIME 00:00:00
SWEEP_START 01/01
SWEEP_END 12/31
DRY_DAYS 0
REPORT_STEP 00:15:00
WET_STEP 00:05:00
DRY_STEP 01:00:00
ROUTING_STEP 600
LENGTHENING_STEP 0
VARIABLE_STEP 0
MINIMUM_STEP 0.5
INERTIAL_DAMPING NONE
NORMAL_FLOW_LIMITED SLOPE
MIN_SURFAREA 0
MIN_SLOPE 0.001
MAX_TRIALS 8
HEAD_TOLERANCE 0.005
THREADS 1
TEMPDIR .\temp
