[TITLE]
TEST1
FLAT SLOPE EXAMPLE

[OPTIONS]

 FLOW_UNITS         	CFS
 INFILTRATION       	HORTON
 FLOW_ROUTING       	DYNWAVE
 LINK_OFFSETS       	DEPTH
 MIN_SLOPE          	0.0
 ALLOW_PONDING      	NO
 IGNORE_RAINFALL    	NO
 IGNORE_RDII        	NO
 IGNORE_SNOWMELT    	NO
 IGNORE_GROUNDWATER 	NO
 IGNORE_ROUTING     	NO
 IGNORE_QUALITY     	NO
;; Dates
 START_DATE         	02/02/2002
 START_TIME         	00:00:00
 REPORT_START_DATE  	02/02/2002
 REPORT_START_TIME  	00:00:00
 END_DATE           	02/02/2002
 END_TIME           	05:00:00
 SWEEP_START        	01/01
 SWEEP_END          	12/31
 DRY_DAYS           	0.0
;; Time Steps
 SKIP_STEADY_STATE  	NO
 REPORT_STEP        	00:00:30
 WET_STEP           	00:15:00
 DRY_STEP           	01:00:00
 ROUTING_STEP       	0:00:05
 SYS_FLOW_TOL       	5
 LAT_FLOW_TOL       	5
;; Dynamic Wave
 INERTIAL_DAMPING   	NONE
 NORMAL_FLOW_LIMITED	SLOPE
 FORCE_MAIN_EQUATION	H-W
 VARIABLE_STEP      	0.00
 LENGTHENING_STEP   	0
 MIN_SURFAREA       	0
 MAX_TRIALS         	8
 MINIMUM_STEP       	0.5

[JUNCTIONS]
;;                 Invert     Max.       Init.      Surcharge  Ponded
;;Name             Elev.      Depth      Depth      Depth      Area
;;------------------------------------------------------------------------
0               	10.00     	10.00     	.00       	.00       	0
1               	10.00     	10.00     	.00       	.00       	0
2               	10.00     	10.00     	.00       	.00       	0
3               	10.00     	10.00     	.00       	.00       	0
4               	10.00     	10.00     	.00       	.00       	0
5               	10.00     	10.00     	.00       	.00       	0
6               	10.00     	10.00     	.00       	.00       	0
7               	10.00     	10.00     	.00       	.00       	0
8               	10.00     	10.00     	.00       	.00       	0
9               	10.00     	10.00     	.00       	.00       	0

[OUTFALLS]
;;                 Invert     Outfall    Stage/Table      Tide
;;Name             Elev.      Type       Time Series      Gate
;;------------------------------------------------------------
10              	      10.0	FREE      	                	NO      	        

[CONDUITS]
;;                 Inlet            Outlet                      Manning    Inlet      Outlet     Init.      Maximum
;;Name             Node             Node             Length     N          Height     Height     Flow       Flow
;;------------------------------------------------------------------------------------------------------------------------
;#PRINT
1               	0               	1               	100       	0.011     	0         	0         	0         	0         	
2               	1               	2               	100       	0.011     	0         	0         	0         	0         	
3               	2               	3               	100       	0.011     	0         	0         	0         	0         	
4               	3               	4               	100       	0.011     	0         	0         	0         	0         	
5               	4               	5               	100       	0.011     	0         	0         	0         	0         	
6               	5               	6               	100       	0.011     	0         	0         	0         	0         	
7               	6               	7               	100       	0.011     	0         	0         	0         	0         	
8               	7               	8               	100       	0.011     	0         	0         	0         	0         	
9               	8               	9               	100       	0.011     	0         	0         	0         	0         	
10              	9               	10              	100       	0.011     	0         	0         	0         	0         	

[XSECTIONS]
;;Link             Type         Geom1      Geom2      Geom3      Geom4      Barrels
;;---------------------------------------------------------------------------------
1               	CIRCULAR    	4               	0         	0         	0         	1         	          
2               	CIRCULAR    	4               	0         	0         	0         	1         	          
3               	CIRCULAR    	4               	0         	0         	0         	1         	          
4               	CIRCULAR    	4               	0         	0         	0         	1         	          
5               	CIRCULAR    	4               	0         	0         	0         	1         	          
6               	CIRCULAR    	4               	0         	0         	0         	1         	          
7               	CIRCULAR    	4               	0         	0         	0         	1         	          
8               	CIRCULAR    	4               	0         	0         	0         	1         	          
9               	CIRCULAR    	4               	0         	0         	0         	1         	          
10              	CIRCULAR    	4               	0         	0         	0         	1         	          

[INFLOWS]
;;                                                   Concen   Conversion
;;Node             Parameter        Time Series      /Mass    Factor
;;----------------------------------------------------------------------
0               	FLOW            	1               	FLOW    	1.0     	1.0     	0.0     	        

[TIMESERIES]
;;Name          	Date      	Time      	Value
;;--------------	----------	----------	----------
1               	02/02/2002	0:0       	0.0       
1               	02/02/2002	0:15      	100.00000 
1               	02/02/2002	3:00      	100.00000 
1               	02/02/2002	3:15      	0.00000   
1               	02/02/2002	12:00     	0.00000   

[REPORT]
;;Reporting Options
 INPUT              	NO
 CONTINUITY         	YES
 FLOWSTATS          	YES
 CONTROLS           	NO
 SUBCATCHMENTS      	ALL
 NODES              	ALL
 LINKS              	ALL

[MAP]
 DIMENSIONS       	            35.0	            35.0	           145.0	           145.0
 UNITS            	NONE

[COORDINATES]
;Node            	X-Coord   	Y-Coord
 0               	40.0      	40.0      
 1               	50.0      	50.0      
 2               	60.0      	60.0      
 3               	70.0      	70.0      
 4               	80.0      	80.0      
 5               	90.0      	90.0      
 6               	100.0     	100.0     
 7               	110.0     	110.0     
 8               	120.0     	120.0     
 9               	130.0     	130.0     
 10              	140.0     	140.0     

[BACKDROP]
 DIMENSIONS       	             0.0	             0.0	             0.0	             0.0

[LOSSES]
;;Link          	Kentry    	Kexit     	Kavg      	Flap Gate 	Seepage   
;;--------------	----------	----------	----------	----------	----------
1               	       0.0	       0.0	       0.0	NO        	       0.0
2               	       0.0	       0.0	       0.0	NO        	       0.0
3               	       0.0	       0.0	       0.0	NO        	       0.0
4               	       0.0	       0.0	       0.0	NO        	       0.0
5               	       0.0	       0.0	       0.0	NO        	       0.0
6               	       0.0	       0.0	       0.0	NO        	       0.0
7               	       0.0	       0.0	       0.0	NO        	       0.0
8               	       0.0	       0.0	       0.0	NO        	       0.0
9               	       0.0	       0.0	       0.0	NO        	       0.0
10              	       0.0	       0.0	       0.0	NO        	       0.0
