[TITLE]
Example 6
Runoff Treatment
Initial Setup

[OPTIONS]
FLOW_UNITS           CFS
INFILTRATION         HORTON
FLOW_ROUTING         DYNWAVE
START_DATE           01/01/2007
START_TIME           00:00:00
REPORT_START_DATE    01/01/2007
REPORT_START_TIME    00:00:00
END_DATE             01/02/2007
END_TIME             00:00:00
SWEEP_START          01/01
SWEEP_END            12/31
DRY_DAYS             5
REPORT_STEP          00:01:00
WET_STEP             00:01:00
DRY_STEP             01:00:00
ROUTING_STEP         0:00:15 
ALLOW_PONDING        NO
INERTIAL_DAMPING     PARTIAL
VARIABLE_STEP        0.75
LENGTHENING_STEP     0
MIN_SURFAREA         0
NORMAL_FLOW_LIMITED  SLOPE
SKIP_STEADY_STATE    NO
FORCE_MAIN_EQUATION  H-W
LINK_OFFSETS         DEPTH
MIN_SLOPE            0

[EVAPORATION]
;;Type       Parameters
;;---------- ----------
CONSTANT     0.0

[RAINGAGES]
;;               Rain      Time   Snow   Data      
;;Name           Type      Intrvl Catch  Source    
;;-------------- --------- ------ ------ ----------
RainGage         INTENSITY 0:05   1.0    TIMESERIES 0.1-in          
Null             INTENSITY 1:00   1.0    TIMESERIES Null            

[SUBCATCHMENTS]
;;                                                 Total    Pcnt.             Pcnt.    Curb     Snow    
;;Name           Raingage         Outlet           Area     Imperv   Width    Slope    Length   Pack    
;;-------------- ---------------- ---------------- -------- -------- -------- -------- -------- --------
S5               RainGage         J10              4.79     87.7     1670     2        2480                     
S6               RainGage         J11              1.98     95.0     690      2        1100                     
S7               RainGage         J10              2.33     0.0      907      3.1      565                      
S3.1             RainGage         J3               1.29     0        614      4.7      0                        
S3.2             RainGage         S_FS_1           1.02     65       349      2        430                      
S3.3             RainGage         S_FS_2           1.38     58       489      2        500                      
S4.1             RainGage         J6               1.65     0        580      5        0                        
S4.2             RainGage         S_FS_3           0.79     70       268      2        400                      
S4.3             RainGage         S_FS_4           1.91     65       657      2        1150                     
S4.4             RainGage         J9               2.40     69       839      2        700                      
S_FS_1           Null             J15              0.038    0        410      2        0                        
S_FS_2           Null             J17              0.043    0        463      2        0                        
S_FS_3           Null             J16              0.025    0        267      2        0                        
S_FS_4           Null             J16              0.082    0        894      2        0                        
S1.1             RainGage         J12              1.21     65       422      2        450                      
S1.2             RainGage         S_IT_1           1.46     65       509      2        600                      
S1.3             RainGage         S_IT_2           1.88     45       655      2        630                      
S2.1             RainGage         J14              1.30     45       453      2        450                      
S2.2             RainGage         S_IT_3           1.50     70       523      2        600                      
S2.3             RainGage         S_IT_4           1.88     70       655      2        630                      
S_IT_1           Null             J1               0.031    0        3        0.422    0                        
S_IT_2           Null             J1               0.033    0        3        0.422    0                        
S_IT_3           Null             J13              0.031    0        3        0.444    0                        
S_IT_4           Null             J13              0.032    0        3        0.468    0                        

[SUBAREAS]
;;Subcatchment   N-Imperv   N-Perv     S-Imperv   S-Perv     PctZero    RouteTo    PctRouted 
;;-------------- ---------- ---------- ---------- ---------- ---------- ---------- ----------
S5               0.015      0.24       0.06       0.3        25         OUTLET    
S6               0.015      0.24       0.06       0.3        25         OUTLET    
S7               0.015      0.24       0.06       0.3        25         OUTLET    
S3.1             0.015      0.24       0.06       0.3        25         OUTLET    
S3.2             0.015      0.24       0.06       0.3        25         OUTLET    
S3.3             0.015      0.24       0.06       0.3        25         OUTLET    
S4.1             0.015      0.24       0.06       0.3        25         OUTLET    
S4.2             0.015      0.24       0.06       0.3        25         OUTLET    
S4.3             0.015      0.24       0.06       0.3        25         OUTLET    
S4.4             0.015      0.24       0.06       0.3        25         OUTLET    
S_FS_1           0.015      0.24       0.06       0.3        25         OUTLET    
S_FS_2           0.015      0.24       0.06       0.3        25         OUTLET    
S_FS_3           0.015      0.24       0.06       0.3        25         OUTLET    
S_FS_4           0.015      0.24       0.06       0.3        25         OUTLET    
S1.1             0.015      0.24       0.06       0.3        25         OUTLET    
S1.2             0.015      0.24       0.06       0.3        25         OUTLET    
S1.3             0.015      0.24       0.06       0.3        25         OUTLET    
S2.1             0.015      0.24       0.06       0.3        25         OUTLET    
S2.2             0.015      0.24       0.06       0.3        25         OUTLET    
S2.3             0.015      0.24       0.06       0.3        25         OUTLET    
S_IT_1           0.015      0.24       0.06       14.4       25         OUTLET    
S_IT_2           0.015      0.24       0.06       14.4       25         OUTLET    
S_IT_3           0.015      0.24       0.06       14.4       25         OUTLET    
S_IT_4           0.015      0.24       0.06       14.4       25         OUTLET    

[INFILTRATION]
;;Subcatchment   MaxRate    MinRate    Decay      DryTime    MaxInfil  
;;-------------- ---------- ---------- ---------- ---------- ----------
S5               4.5        0.2        6.5        7          0         
S6               4.5        0.2        6.5        7          0         
S7               4.5        0.2        6.5        7          0         
S3.1             4.5        0.2        6.5        7          0         
S3.2             4.5        0.2        6.5        7          0         
S3.3             4.5        0.2        6.5        7          0         
S4.1             4.5        0.2        6.5        7          0         
S4.2             4.5        0.2        6.5        7          0         
S4.3             4.5        0.2        6.5        7          0         
S4.4             4.5        0.2        6.5        7          0         
S_FS_1           0.2        0.2        6.5        7          0         
S_FS_2           0.2        0.2        6.5        7          0         
S_FS_3           0.2        0.2        6.5        7          0         
S_FS_4           0.2        0.2        6.5        7          0         
S1.1             4.5        0.2        6.5        7          0         
S1.2             4.5        0.2        6.5        7          0         
S1.3             4.5        0.2        6.5        7          0         
S2.1             4.5        0.2        6.5        7          0         
S2.2             4.5        0.2        6.5        7          0         
S2.3             4.5        0.2        6.5        7          0         
S_IT_1           0.2        0.2        6.5        7          0         
S_IT_2           0.2        0.2        6.5        7          0         
S_IT_3           0.2        0.2        6.5        7          0         
S_IT_4           0.2        0.2        6.5        7          0         

[JUNCTIONS]
;;               Invert     Max.       Init.      Surcharge  Ponded    
;;Name           Elev.      Depth      Depth      Depth      Area      
;;-------------- ---------- ---------- ---------- ---------- ----------
J1               4973       0          0          0          0         
J2               4969       0          0          0          0         
J3               4973       0          0          0          0         
J4               4971       0          0          0          0         
J5               4969.8     0          0          0          0         
J6               4969       0          0          0          0         
J7               4971.5     0          0          0          0         
J8               4966.5     0          0          0          0         
J9               4964.8     0          0          0          0         
J10              4963.8     0          0          0          0         
J11              4963       0          0          0          0         
J12              4973.8     0          0          0          0         
J13              4970.7     0          0          0          0         
J14              4972.9     0          0          0          0         
J15              4974.5     0          0          0          0         
J16              4973.5     0          0          0          0         
J17              4973.5     0          0          0          0         
J_out            4954       0          0          0          0         

[OUTFALLS]
;;               Invert     Outfall    Stage/Table      Tide
;;Name           Elev.      Type       Time Series      Gate
;;-------------- ---------- ---------- ---------------- ----
O2               4954       FREE                        NO

[STORAGE]
;;               Invert   Max.     Init.    Storage    Curve                      Ponded   Evap.   
;;Name           Elev.    Depth    Depth    Curve      Params                     Area     Frac.    Infiltration Parameters
;;-------------- -------- -------- -------- ---------- -------- -------- -------- -------- -------- -----------------------
SU2              4956     6        0        TABULAR    SU2                        0        0       

[CONDUITS]
;;               Inlet            Outlet                      Manning    Inlet      Outlet     Init.      Max.      
;;Name           Node             Node             Length     N          Offset     Offset     Flow       Flow      
;;-------------- ---------------- ---------------- ---------- ---------- ---------- ---------- ---------- ----------
C1               J1               J5               185.00     0.05       0          0          0          0         
C2               J2               J11              526.00     0.016      0          4          0          0         
C3               J3               J4               109.00     0.016      0          0          0          0         
C4               J4               J5               133.00     0.05       0          0          0          0         
C5               J5               J6               207.00     0.05       0          0          0          0         
C6               J7               J6               140.00     0.05       0          0          0          0         
C7               J6               J8               95.00      0.016      0          0          0          0         
C8               J8               J9               166.00     0.05       0          0          0          0         
C9               J9               J10              320.00     0.05       0          0          0          0         
C10              J10              J11              145.00     0.05       0          0          0          0         
C11              J11              SU2              89.00      0.016      0          1          0          0         
C12              J12              J1               281.7      0.05       0          0          0          0         
C13              J14              J13              275.7      0.016      0          0          0          0         
C14              J13              J2               157.48     0.016      0          0          0          0         
C15              J15              J3               444.75     0.05       0          0          0          0         
C16              J17              J5               200.16     0.05       0          0          0          0         
C17              J16              J7               300.42     0.016      0          0          0          0         
C_out            J_out            O2               100        0.01       0          0          0          0         

[ORIFICES]
;;               Inlet            Outlet           Orifice      Crest      Disch.     Flap Open/Close
;;Name           Node             Node             Type         Height     Coeff.     Gate Time      
;;-------------- ---------------- ---------------- ------------ ---------- ---------- ---- ----------
Or1              SU2              J_out            SIDE         0          0.65       NO   0         
Or2              SU2              J_out            SIDE         1.5        0.65       NO   0         

[WEIRS]
;;               Inlet            Outlet           Weir         Crest      Disch.     Flap End      End       
;;Name           Node             Node             Type         Height     Coeff.     Gate Con.     Coeff.    
;;-------------- ---------------- ---------------- ------------ ---------- ---------- ---- -------- ----------
W1               SU2              J_out            TRANSVERSE   3.28       3.3        NO   0        0         

[XSECTIONS]
;;Link           Shape        Geom1            Geom2      Geom3      Geom4      Barrels   
;;-------------- ------------ ---------------- ---------- ---------- ---------- ----------
C1               TRAPEZOIDAL  3                5          5          5          1                    
C2               TRAPEZOIDAL  1.5              0          0.0001     25         1                    
C3               CIRCULAR     2.25             0          0          0          1                    
C4               TRAPEZOIDAL  3                5          5          5          1                    
C5               TRAPEZOIDAL  3                5          5          5          1                    
C6               TRAPEZOIDAL  3                5          5          5          1                    
C7               CIRCULAR     3.5              0          0          0          1                    
C8               TRAPEZOIDAL  3                5          5          5          1                    
C9               TRAPEZOIDAL  3                5          5          5          1                    
C10              TRAPEZOIDAL  3                5          5          5          1                    
C11              CIRCULAR     4.75             0          0          0          1                    
C12              TRAPEZOIDAL  3                5          5          5          1                    
C13              TRAPEZOIDAL  1.5              0          0.0001     25         1                    
C14              TRAPEZOIDAL  1.5              0          0.0001     25         1                    
C15              TRAPEZOIDAL  3                5          5          5          1                    
C16              TRAPEZOIDAL  3                5          5          5          1                    
C17              TRAPEZOIDAL  1.5              0          0.0001     25         1                    
C_out            CIRCULAR     4.75             0          0          0          1                    
Or1              RECT_CLOSED  0.16             0.25       0          0
Or2              RECT_CLOSED  0.5              2.25       0          0
W1               RECT_OPEN    2.72             1.6        0          0         

[LOSSES]
;;Link           Inlet      Outlet     Average    Flap Gate 
;;-------------- ---------- ---------- ---------- ----------

[POLLUTANTS]
;;               Mass   Rain       GW         I&I        Decay      Snow  Co-Pollut.       Co-Pollut.
;;Name           Units  Concen.    Concen.    Concen.    Coeff.     Only  Name             Fraction  
;;-------------- ------ ---------- ---------- ---------- ---------- ----- ---------------- ----------
TSS              MG/L   10         0.0        0.0        0.0        NO   

[LANDUSES]
;;               Cleaning   Fraction   Last      
;;Name           Interval   Available  Cleaned   
;;-------------- ---------- ---------- ----------
Residential_1    0          0          0         
Residential_2    0          0          0         
Commercial       0          0          0         

[COVERAGES]
;;Subcatchment   Land Use         Percent   
;;-------------- ---------------- ----------
S5               Commercial       98        
S6               Commercial       100       
S3.2             Residential_1    100       
S3.3             Residential_2    85        
S4.2             Residential_2    100       
S4.3             Residential_1    36        
S4.3             Residential_2    64        
S4.4             Commercial       71        
S1.1             Residential_1    100       
S1.2             Residential_1    100       
S1.3             Residential_1    100       
S2.1             Residential_1    100       
S2.2             Residential_2    100       
S2.3             Residential_2    100       

[LOADINGS]
;;Subcatchment   Pollutant        Loading   
;;-------------- ---------------- ----------

[BUILDUP]
;;LandUse        Pollutant        Function   Coeff1     Coeff2     Coeff3     Normalizer
;;-------------- ---------------- ---------- ---------- ---------- ---------- ----------
Residential_1    TSS              EXP        0.11       0.5        0.0        CURB      
Residential_2    TSS              EXP        0.13       0.5        0.0        CURB      
Commercial       TSS              EXP        0.15       0.2        0.0        CURB      

[WASHOFF]
;;                                                                 Cleaning   BMP       
;;Land Use       Pollutant        Function   Coeff1     Coeff2     Effic.     Effic.    
;;-------------- ---------------- ---------- ---------- ---------- ---------- ----------
Residential_1    TSS              EMC        160        0          0.0        0.0       
Residential_2    TSS              EMC        200        0          0.0        0.0       
Commercial       TSS              EMC        180        0          0.0        0.0       

[CURVES]
;;Name           Type       X-Value    Y-Value   
;;-------------- ---------- ---------- ----------
SU2              Storage    0          10368     
SU2                         2.2        14512     
SU2                         2.3        32000     
SU2                         6          50000     

[TIMESERIES]
;;Name           Date       Time       Value     
;;-------------- ---------- ---------- ----------
2-yr                        0:00       0.29      
2-yr                        0:05       0.33      
2-yr                        0:10       0.38      
2-yr                        0:15       0.64      
2-yr                        0:20       0.81      
2-yr                        0:25       1.57      
2-yr                        0:30       2.85      
2-yr                        0:35       1.18      
2-yr                        0:40       0.71      
2-yr                        0:45       0.42      
2-yr                        0:50       0.35      
2-yr                        0:55       0.3       
2-yr                        1:00       0.2       
2-yr                        1:05       0.19      
2-yr                        1:10       0.18      
2-yr                        1:15       0.17      
2-yr                        1:20       0.17      
2-yr                        1:25       0.16      
2-yr                        1:30       0.15      
2-yr                        1:35       0.15      
2-yr                        1:40       0.14      
2-yr                        1:45       0.14      
2-yr                        1:50       0.13      
2-yr                        1:55       0.13      

10-yr                       0:00       0.49      
10-yr                       0:05       0.56      
10-yr                       0:10       0.65      
10-yr                       0:15       1.09      
10-yr                       0:20       1.39      
10-yr                       0:25       2.69      
10-yr                       0:30       4.87      
10-yr                       0:35       2.02      
10-yr                       0:40       1.21      
10-yr                       0:45       0.71      
10-yr                       0:50       0.6       
10-yr                       0:55       0.52      
10-yr                       1:00       0.39      
10-yr                       1:05       0.37      
10-yr                       1:10       0.35      
10-yr                       1:15       0.34      
10-yr                       1:20       0.32      
10-yr                       1:25       0.31      
10-yr                       1:30       0.3       
10-yr                       1:35       0.29      
10-yr                       1:40       0.28      
10-yr                       1:45       0.27      
10-yr                       1:50       0.26      
10-yr                       1:55       0.25      

100-yr                      0:00       1         
100-yr                      0:05       1.14      
100-yr                      0:10       1.33      
100-yr                      0:15       2.23      
100-yr                      0:20       2.84      
100-yr                      0:25       5.49      
100-yr                      0:30       9.95      
100-yr                      0:35       4.12      
100-yr                      0:40       2.48      
100-yr                      0:45       1.46      
100-yr                      0:50       1.22      
100-yr                      0:55       1.06      
100-yr                      1:00       1         
100-yr                      1:05       0.95      
100-yr                      1:10       0.91      
100-yr                      1:15       0.87      
100-yr                      1:20       0.84      
100-yr                      1:25       0.81      
100-yr                      1:30       0.78      
100-yr                      1:35       0.75      
100-yr                      1:40       0.73      
100-yr                      1:45       0.71      
100-yr                      1:50       0.69      
100-yr                      1:55       0.67      

;Rain gage for the filter strips
Null                        0          0         

0.1-in                      0:00       0.030     
0.1-in                      0:05       0.034     
0.1-in                      0:10       0.039     
0.1-in                      0:15       0.065     
0.1-in                      0:20       0.083     
0.1-in                      0:25       0.160     
0.1-in                      0:30       0.291     
0.1-in                      0:35       0.121     
0.1-in                      0:40       0.073     
0.1-in                      0:45       0.043     
0.1-in                      0:50       0.036     
0.1-in                      0:55       0.031     
0.1-in                      1:00       0.020     
0.1-in                      1:05       0.019     
0.1-in                      1:10       0.018     
0.1-in                      1:15       0.017     
0.1-in                      1:20       0.017     
0.1-in                      1:25       0.016     
0.1-in                      1:30       0.015     
0.1-in                      1:35       0.015     
0.1-in                      1:40       0.014     
0.1-in                      1:45       0.014     
0.1-in                      1:50       0.013     
0.1-in                      1:55       0.013     

0.23-in                     0:00       0.068     
0.23-in                     0:05       0.078     
0.23-in                     0:10       0.089     
0.23-in                     0:15       0.150     
0.23-in                     0:20       0.190     
0.23-in                     0:25       0.369     
0.23-in                     0:30       0.670     
0.23-in                     0:35       0.277     
0.23-in                     0:40       0.167     
0.23-in                     0:45       0.099     
0.23-in                     0:50       0.082     
0.23-in                     0:55       0.071     
0.23-in                     1:00       0.047     
0.23-in                     1:05       0.045     
0.23-in                     1:10       0.042     
0.23-in                     1:15       0.040     
0.23-in                     1:20       0.040     
0.23-in                     1:25       0.038     
0.23-in                     1:30       0.035     
0.23-in                     1:35       0.035     
0.23-in                     1:40       0.033     
0.23-in                     1:45       0.033     
0.23-in                     1:50       0.031     
0.23-in                     1:55       0.031     

[REPORT]
INPUT      NO
CONTROLS   NO
SUBCATCHMENTS ALL
NODES ALL
LINKS ALL

[TAGS]
Link       C1               Swale           
Link       C2               Gutter          
Link       C3               Culvert         
Link       C4               Swale           
Link       C5               Swale           
Link       C6               Swale           
Link       C7               Culvert         
Link       C8               Swale           
Link       C9               Swale           
Link       C10              Swale           
Link       C11              Culvert         
Link       C12              Swale           
Link       C13              Gutter          
Link       C14              Gutter          
Link       C15              Swale           
Link       C16              Swale           
Link       C17              Gutter          
Link       C_out            Culvert         

[MAP]
DIMENSIONS 0.000 0.000 1423.000 1475.000
Units      Feet

[COORDINATES]
;;Node           X-Coord            Y-Coord           
;;-------------- ------------------ ------------------
J1               658.217            1036.898          
J2               1221.281           1005.760          
J3               405.287            905.702           
J4               505.345            862.573           
J5               631.281            859.123           
J6               822.772            819.444           
J7               831.398            709.035           
J8               915.930            840.146           
J9               1072.918           867.749           
J10              1254.058           640.029           
J11              1333.415           519.269           
J12              683.590            1315.998          
J13              1155.725           1148.947          
J14              1062.489           1402.265          
J15              122.363            696.959           
J16              693.739            465.166           
J17              504.290            705.361           
J_out            1557.684           372.632           
O2               1557.684           293.275           
SU2              1471.427           458.889           

[VERTICES]
;;Link           X-Coord            Y-Coord           
;;-------------- ------------------ ------------------
C2               1321.339           774.591           
C2               1374.819           652.105           
C2               1366.193           588.275           
C4               541.573            841.871           
C5               672.684            850.497           
C5               712.363            829.795           
C5               743.415            805.643           
C5               805.520            812.544           
C6               791.719            734.912           
C6               798.620            784.942           
C8               965.959            838.421           
C8               995.287            831.520           
C8               1038.415           850.497           
C9               1102.246           867.749           
C9               1131.573           852.222           
C9               1147.099           829.795           
C9               1162.626           809.094           
C9               1198.854           779.766           
C9               1219.556           757.339           
C9               1233.357           721.111           
C9               1238.532           715.936           
C9               1235.082           674.532           
C9               1247.158           646.930           
C15              146.515            676.257           
C15              208.620            726.287           
C15              239.673            793.567           
C15              251.749            876.374           
C15              291.427            912.602           
C15              355.257            929.854           
C16              553.343            778.096           
C17              793.538            615.711           
C17              849.358            695.212           
Or2              1580.092           661.382           
W1               1443.080           113.331           

[Polygons]
;;Subcatchment   X-Coord            Y-Coord           
;;-------------- ------------------ ------------------
S5               1301.482           474.258           
S5               1271.677           445.380           
S5               1232.340           393.835           
S5               1241.835           384.340           
S5               1222.844           366.706           