[TITLE]
Example 8
Combined Sewer System

[OPTIONS]
FLOW_UNITS           CFS
INFILTRATION         HORTON
FLOW_ROUTING         DYNWAVE
START_DATE           01/01/2007
START_TIME           00:00:00
REPORT_START_DATE    01/01/2007
REPORT_START_TIME    00:00:00
END_DATE             01/01/2007
END_TIME             12:00:00
SWEEP_START          01/01
SWEEP_END            12/31
DRY_DAYS             0
REPORT_STEP          00:01:00
WET_STEP             00:01:00
DRY_STEP             01:00:00
ROUTING_STEP         0:00:15 
ALLOW_PONDING        NO
INERTIAL_DAMPING     PARTIAL
VARIABLE_STEP        0.75
LENGTHENING_STEP     0
MIN_SURFAREA         0
NORMAL_FLOW_LIMITED  SLOPE
SKIP_STEADY_STATE    NO
FORCE_MAIN_EQUATION  H-W
LINK_OFFSETS         DEPTH
MIN_SLOPE            0

[EVAPORATION]
;;Type       Parameters
;;---------- ----------
CONSTANT     0.0

[RAINGAGES]
;;               Rain      Time   Snow   Data      
;;Name           Type      Intrvl Catch  Source    
;;-------------- --------- ------ ------ ----------
RainGage         INTENSITY 0:05   1.0    TIMESERIES 0.23-in         

[SUBCATCHMENTS]
;;                                                 Total    Pcnt.             Pcnt.    Curb     Snow    
;;Name           Raingage         Outlet           Area     Imperv   Width    Slope    Length   Pack    
;;-------------- ---------------- ---------------- -------- -------- -------- -------- -------- --------
S1               RainGage         J1               4.55     56.8     1587     2        0                        
S2               RainGage         J2a              4.74     63.0     1653     2        0                        
S3               RainGage         Aux3             3.74     39.5     1456     3.1      0                        
S4               RainGage         J13              6.79     49.9     2331     3.1      0                        
S5               RainGage         J12              4.79     87.7     1670     2        0                        
S6               RainGage         J11              1.98     95.0     690      2        0                        
S7               RainGage         J10              2.33     0.0      907      3.1      0                        

[SUBAREAS]
;;Subcatchment   N-Imperv   N-Perv     S-Imperv   S-Perv     PctZero    RouteTo    PctRouted 
;;-------------- ---------- ---------- ---------- ---------- ---------- ---------- ----------
S1               0.015      0.24       0.06       0.3        25         OUTLET    
S2               0.015      0.24       0.06       0.3        25         OUTLET    
S3               0.015      0.24       0.06       0.3        25         OUTLET    
S4               0.015      0.24       0.06       0.3        25         OUTLET    
S5               0.015      0.24       0.06       0.3        25         OUTLET    
S6               0.015      0.24       0.06       0.3        25         OUTLET    
S7               0.015      0.24       0.06       0.3        25         OUTLET    

[INFILTRATION]
;;Subcatchment   MaxRate    MinRate    Decay      DryTime    MaxInfil  
;;-------------- ---------- ---------- ---------- ---------- ----------
S1               4.5        0.2        6.5        7          0         
S2               4.5        0.2        6.5        7          0         
S3               4.5        0.2        6.5        7          0         
S4               4.5        0.2        6.5        7          0         
S5               4.5        0.2        6.5        7          0         
S6               4.5        0.2        6.5        7          0         
S7               4.5        0.2        6.5        7          0         

[JUNCTIONS]
;;               Invert     Max.       Init.      Surcharge  Ponded    
;;Name           Elev.      Depth      Depth      Depth      Area      
;;-------------- ---------- ---------- ---------- ---------- ----------
J1               4969       4.2        0          0          0         
J2a              4966.7     4          0          0          0         
J2               4965       4          0          0          0         
J3               4968       0          0          0          0         
J4               4966       0          0          0          0         
J5               4964.8     0          0          0          0         
J6               4964       0          0          0          0         
J7               4960       12         0          0          0         
J8               4961.5     0          0          0          0         
J9               4959.8     0          0          0          0         
J10              4958.8     0          0          0          0         
J11              4958       0          0          0          0         
J12              4968       4.2        0          0          0         
J13              4968       4.8        0          0          0         
Aux3             4968.5     0          0          0          0         
JI1              4958       16         0          0          0         
JI2              4957       15.8       0          0          0         
JI3              4955       16         0          0          0         
JI4              4952       14         0          0          0         
JI5              4950       16         0          0          0         
JI6              4967       7.2        0          0          0         
JI7              4967       6          0          0          0         
JI8              4962       6.2        0          0          0         
JI9              4960       5.2        0          0          0         
JI10             4947       0          0          265        0         
JI11             4954.8     0          0          265        0         
JI12             4962.6     0          0          265        0         
JI13             4970.4     0          0          265        0         

[OUTFALLS]
;;               Invert     Outfall    Stage/Table      Tide
;;Name           Elev.      Type       Time Series      Gate
;;-------------- ---------- ---------- ---------------- ----
O1               4957       FREE                        NO
O2               4968       FIXED      4970             NO

[STORAGE]
;;               Invert   Max.     Init.    Storage    Curve                      Ponded   Evap.   
;;Name           Elev.    Depth    Depth    Curve      Params                     Area     Frac.    Infiltration Parameters
;;-------------- -------- -------- -------- ---------- -------- -------- -------- -------- -------- -----------------------
Well             4945     14       3        FUNCTIONAL 0        0        300      0        0       

[CONDUITS]
;;               Inlet            Outlet                      Manning    Inlet      Outlet     Init.      Max.      
;;Name           Node             Node             Length     N          Offset     Offset     Flow       Flow      
;;-------------- ---------------- ---------------- ---------- ---------- ---------- ---------- ---------- ----------
C3               J3               J4               109.0      0.016      0          0          0          0         
C4               J4               J5               133.00     0.05       0          0          0          0         
C5               J5               J6               207.0      0.05       0          0          0          0         
C6               J7               J6               140.0      0.05       5          0          0          0         
C7               J6               J8               95.0       0.016      0          0          0          0         
C8               J8               J9               166.0      0.05       0          0          0          0         
C9               J9               J10              320.0      0.05       0          0          0          0         
C10              J10              J11              145.0      0.05       0          0          0          0         
C11              J11              O1               89.0       0.016      0          0          0          0         
C_Aux3           Aux3             J3               444.75     0.05       6          0          0          0         
P1               J1               JI7              185.39     0.016      0          0          0          0         
P2               J2a              J2               157.48     0.016      0          0          0          0         
P3               J2               JI9              529.22     0.016      0          0          0          0         
P4               Aux3             JI6              567.19     0.016      0          0          0          0         
P5               J13              J7               377.76     0.016      0          0          0          0         
P6               J12              JI8              498.42     0.016      0          0          0          0         
I1               JI1              JI2              150.36     0.016      0          0          0          0         
I2               JI2              JI3              230.38     0.016      0          0          0          0         
I3               JI3              JI4              578.27     0.016      0          0          0          0         
I4               JI4              JI5              124.45     0.016      0          0          0          0         
I5               JI7              JI2              10.65      0.016      0          0          0          0         
I6               J7               JI3              153.02     0.016      0          0          0          0         
I7               JI8              JI4              32.88      0.016      0          0          0          0         
I8               JI9              JI5              47.72      0.016      0          0          0          0         
I9               JI5              Well             100        0.016      0          4          0          0         
I10              JI10             JI11             500        0.016      0          0          0          0         
I11              JI11             JI12             500        0.016      0          0          0          0         
I12              JI12             JI13             500        0.016      0          0          0          0         
I13              JI13             O2               500        0.016      0          0          0          0         

[PUMPS]
;;               Inlet            Outlet           Pump             Init.  Startup  Shutoff 
;;Name           Node             Node             Curve            Status Depth    Depth   
;;-------------- ---------------- ---------------- ---------------- ------ -------- --------
;Pump type III
Pump1            Well             JI10             Pump1            OFF    5        2       

[ORIFICES]
;;               Inlet            Outlet           Orifice      Crest      Disch.     Flap Open/Close
;;Name           Node             Node             Type         Height     Coeff.     Gate Time      
;;-------------- ---------------- ---------------- ------------ ---------- ---------- ---- ----------
Or1              JI6              JI1              BOTTOM       0          0.65       NO   0         

[WEIRS]
;;               Inlet            Outlet           Weir         Crest      Disch.     Flap End      End       
;;Name           Node             Node             Type         Height     Coeff.     Gate Con.     Coeff.    
;;-------------- ---------------- ---------------- ------------ ---------- ---------- ---- -------- ----------
W1               JI6              J4               TRANSVERSE   0.4        3.3        NO   0        0         
W2               JI7              J5               TRANSVERSE   0.33       3.3        NO   0        0         
W3               JI8              J10              TRANSVERSE   0.4        3.3        NO   0        0         
W4               JI9              J11              TRANSVERSE   0.35       3.3        NO   0        0         

[XSECTIONS]
;;Link           Shape        Geom1            Geom2      Geom3      Geom4      Barrels   
;;-------------- ------------ ---------------- ---------- ---------- ---------- ----------
C3               CIRCULAR     2.25             0          0          0          1                    
C4               TRAPEZOIDAL  3                5          5          5          1                    
C5               TRAPEZOIDAL  3                5          5          5          1                    
C6               TRAPEZOIDAL  3                5          5          5          1                    
C7               CIRCULAR     3.5              0          0          0          1                    
C8               TRAPEZOIDAL  3                5          5          5          1                    
C9               TRAPEZOIDAL  3                5          5          5          1                    
C10              TRAPEZOIDAL  3                5          5          5          1                    
C11              CIRCULAR     4.75             0          0          0          1                    
C_Aux3           TRAPEZOIDAL  3                5          5          5          1                    
P1               CIRCULAR     1.33             0          0          0          1                    
P2               CIRCULAR     1.5              0          0          0          1                    
P3               CIRCULAR     1.5              0          0          0          1                    
P4               CIRCULAR     1.67             0          0          0          1                    
P5               CIRCULAR     1.67             0          0          0          1                    
P6               CIRCULAR     1.67             0          0          0          1                    
I1               CIRCULAR     1                0          0          0          1                    
I2               CIRCULAR     1                0          0          0          1                    
I3               CIRCULAR     1.5              0          0          0          1                    
I4               CIRCULAR     1.5              0          0          0          1                    
I5               CIRCULAR     0.33             0          0          0          1                    
I6               CIRCULAR     0.66             0          0          0          1                    
I7               CIRCULAR     0.5              0          0          0          1                    
I8               CIRCULAR     0.5              0          0          0          1                    
I9               CIRCULAR     2                0          0          0          1                    
I10              CIRCULAR     2                0          0          0          1                    
I11              CIRCULAR     2                0          0          0          1                    
I12              CIRCULAR     2                0          0          0          1                    
I13              CIRCULAR     4                0          0          0          1                    
Or1              CIRCULAR     0.5              0          0          0
W1               RECT_OPEN    6.5              3          0          0         
W2               RECT_OPEN    5.5              5          0          0         
W3               RECT_OPEN    5                4          0          0         
W4               RECT_OPEN    4.5              4          0          0         

[LOSSES]
;;Link           Inlet      Outlet     Average    Flap Gate 
;;-------------- ---------- ---------- ---------- ----------

[DWF]
;;                                Average    Time      
;;Node           Parameter        Value      Patterns  
;;-------------- ---------------- ---------- ----------
J1               FLOW             0.008     
J2a              FLOW             0.01      
J12              FLOW             0.0125    
J13              FLOW             0.0123    
Aux3             FLOW             0.004     

[CURVES]
;;Name           Type       X-Value    Y-Value   
;;-------------- ---------- ---------- ----------
Pump1            Pump3      11         7.2       
Pump1                       12         6.9       
Pump1                       13         6.5       
Pump1                       14         6.1       
Pump1                       15         5.7       
Pump1                       16         5.2       
Pump1                       17         4.7       
Pump1                       18         4.1       
Pump1                       19         3.6       
Pump1                       20         2.9       
Pump1                       21         2.3       
Pump1                       22         1.5       
Pump1                       23         0.8       
Pump1                       24         0         

[TIMESERIES]
;;Name           Date       Time       Value     
;;-------------- ---------- ---------- ----------
2-yr                        0:00       0.29      
2-yr                        0:05       0.33      
2-yr                        0:10       0.38      
2-yr                        0:15       0.64      
2-yr                        0:20       0.81      
2-yr                        0:25       1.57      
2-yr                        0:30       2.85      
2-yr                        0:35       1.18      
2-yr                        0:40       0.71      
2-yr                        0:45       0.42      
2-yr                        0:50       0.35      
2-yr                        0:55       0.3       
2-yr                        1:00       0.2       
2-yr                        1:05       0.19      
2-yr                        1:10       0.18      
2-yr                        1:15       0.17      
2-yr                        1:20       0.17      
2-yr                        1:25       0.16      
2-yr                        1:30       0.15      
2-yr                        1:35       0.15      
2-yr                        1:40       0.14      
2-yr                        1:45       0.14      
2-yr                        1:50       0.13      
2-yr                        1:55       0.13      

10-yr                       0:00       0.49      
10-yr                       0:05       0.56      
10-yr                       0:10       0.65      
10-yr                       0:15       1.09      
10-yr                       0:20       1.39      
10-yr                       0:25       2.69      
10-yr                       0:30       4.87      
10-yr                       0:35       2.02      
10-yr                       0:40       1.21      
10-yr                       0:45       0.71      
10-yr                       0:50       0.6       
10-yr                       0:55       0.52      
10-yr                       1:00       0.39      
10-yr                       1:05       0.37      
10-yr                       1:10       0.35      
10-yr                       1:15       0.34      
10-yr                       1:20       0.32      
10-yr                       1:25       0.31      
10-yr                       1:30       0.3       
10-yr                       1:35       0.29      
10-yr                       1:40       0.28      
10-yr                       1:45       0.27      
10-yr                       1:50       0.26      
10-yr                       1:55       0.25      

100-yr                      0:00       1         
100-yr                      0:05       1.14      
100-yr                      0:10       1.33      
100-yr                      0:15       2.23      
100-yr                      0:20       2.84      
100-yr                      0:25       5.49      
100-yr                      0:30       9.95      
100-yr                      0:35       4.12      
100-yr                      0:40       2.48      
100-yr                      0:45       1.46      
100-yr                      0:50       1.22      
100-yr                      0:55       1.06      
100-yr                      1:00       1         
100-yr                      1:05       0.95      
100-yr                      1:10       0.91      
100-yr                      1:15       0.87      
100-yr                      1:20       0.84      
100-yr                      1:25       0.81      
100-yr                      1:30       0.78      
100-yr                      1:35       0.75      
100-yr                      1:40       0.73      
100-yr                      1:45       0.71      
100-yr                      1:50       0.69      
100-yr                      1:55       0.67      

0.23-in                     0:00       0.068     
0.23-in                     0:05       0.078     
0.23-in                     0:10       0.089     
0.23-in                     0:15       0.150     
0.23-in                     0:20       0.190     
0.23-in                     0:25       0.369     
0.23-in                     0:30       0.670     
0.23-in                     0:35       0.277     
0.23-in                     0:40       0.167     
0.23-in                     0:45       0.099     
0.23-in                     0:50       0.082     
0.23-in                     0:55       0.071     
0.23-in                     1:00       0.047     
0.23-in                     1:05       0.045     
0.23-in                     1:10       0.042     
0.23-in                     1:15       0.040     
0.23-in                     1:20       0.040     
0.23-in                     1:25       0.038     
0.23-in                     1:30       0.035     
0.23-in                     1:35       0.035     
0.23-in                     1:40       0.033     
0.23-in                     1:45       0.033     
0.23-in                     1:50       0.031     
0.23-in                     1:55       0.031     

[REPORT]
INPUT      NO
CONTROLS   NO
SUBCATCHMENTS ALL
NODES ALL
LINKS ALL

[TAGS]
Link       C3               Culvert         
Link       C4               Swale           
Link       C5               Swale           
Link       C6               Swale           
Link       C7               Culvert         
Link       C8               Swale           
Link       C9               Swale           
Link       C10              Swale           
Link       C11              Culvert         
Link       C_Aux3           Swale           

[MAP]
DIMENSIONS -235.780 -70.199 1960.515 1514.231
Units      Feet

[COORDINATES]
;;Node           X-Coord            Y-Coord           
;;-------------- ------------------ ------------------
J1               648.532            1043.713          
J2a              1155.725           1148.947          
J2               1221.281           1005.760          
J3               405.287            905.702           
J4               505.345            862.573           
J5               633.006            852.222           
J6               822.772            819.444           
J7               831.398            709.035           
J8               915.930            840.146           
J9               1072.918           867.749           
J10              1248.883           633.129           
J11              1329.965           515.819           
J12              998.737            205.292           
J13              641.876            412.587           
Aux3             122.363            696.959           
JI1              489.819            909.152           
JI2              638.784            888.732           
JI3              867.080            857.838           
JI4              1300.637           626.228           
JI5              1390.345           539.971           
JI6              453.591            900.526           
JI7              600.228            874.649           
JI8              1275.182           641.812           
JI9              1343.766           550.322           
JI10             1533.689           658.692           
JI11             1592.501           752.791           
JI12             1656.018           853.947           
JI13             1719.534           957.456           
O1               1411.468           477.401           
O2               1860.683           943.341           
Well             1453.220           531.760           

[VERTICES]
;;Link           X-Coord            Y-Coord           
;;-------------- ------------------ ------------------
C4               559.710            846.393           
C5               672.684            850.497           
C5               712.363            829.795           
C5               743.415            805.643           
C5               805.520            812.544           
C6               791.719            734.912           
C6               798.620            784.942           
C8               965.959            838.421           
C8               995.287            831.520           
C8               1038.415           850.497           
C9               1102.246           867.749           
C9               1131.573           852.222           
C9               1147.099           829.795           
C9               1162.626           809.094           
C9               1198.854           779.766           
C9               1219.556           757.339           
C9               1233.357           721.111           
C9               1238.532           715.936           
C9               1235.082           674.532           
C9               1247.158           646.930           
C_Aux3           146.515            676.257           
C_Aux3           208.620            726.287           
C_Aux3           239.673            793.567           
C_Aux3           251.749            876.374           
C_Aux3           291.427            912.602           
C_Aux3           355.257            929.854           
P1               648.532            871.199           
P3               1378.269           653.830           
P3               1367.918           584.825           
P4               275.901            572.749           
P4               472.567            824.620           
P5               853.327            689.365           
I3               903.181            864.714           
I3               958.193            869.872           
I3               1023.519           866.434           
I3               1107.756           892.220           
I3               1169.644           869.872           
I3               1233.251           783.916           
I3               1277.948           692.803           

[Polygons]
;;Subcatchment   X-Coord            Y-Coord           
;;-------------- ------------------ ------------------
S1               282.657            1334.810          
S1               111.700            1101.604          
S1               172.525            1062.743          
S1               231.660            1027.262          
S1               306.002            990.092           
S1               370.206            959.679           
S1               409.066            946.163           
S1               444.547            936.025           
S1               493.545            924.198           
S1               532.405            915.750           
S1               569.576            907.302           
S1               610.125            897.165           
S1               655.744            897.165           
S1               684.338            1318.700          
S1               651.043            1321.922          
S1               596.269            1332.662          
S1               551.160            1346.624          
S1               495.312            1367.030          
S1               455.573            1384.214          
S1               410.465            1409.991          
S1               386.836            1427.175          
S1               363.208            1442.211          
S2               678.967            1238.149          
S2               673.584            1152.903          
S2               655.744            897.165           
S2               758.808            893.786           
S2               817.943            895.475           
S2               880.458            898.855           
S2               921.007            905.613           
S2               978.453            920.819           
S2               1042.657           937.715           
S2               1103.482           959.679           
S2               1159.238           985.023           
S2               1225.131           1010.367          
S2               1109.646           1274.665          
S2               1052.723           1400.325          
S2               985.061            1370.252          
S2               924.916            1348.772          
S2               861.549            1331.588          
S2               815.367            1325.144          
S2               762.740            1319.774          
S2               719.780            1316.552          
S2               684.338            1317.626          
S3               108.721            1102.439          
S3               141.276            1080.736          
S3               190.108            1050.894          
S3               247.079            1018.339          
S3               304.050            988.498           
S3               354.238            964.081           
S3               397.645            949.161           
S3               489.688            921.690           
S3               477.265            882.456           
S3               501.515            815.246           
S3               555.581            778.076           
S3               487.998            678.391           
S3               422.104            729.078           
S3               281.870            556.741           
S3               179.256            633.108           
S3               153.484            650.742           
S3               107.365            692.791           