[TITLE]
Example 4
LID Controls

[OPTIONS]
FLOW_UNITS           CFS
INFILTRATION         HORTON
FLOW_ROUTING         DYNWAVE
START_DATE           01/01/2007
START_TIME           00:00:00
REPORT_START_DATE    01/01/2007
REPORT_START_TIME    00:00:00
END_DATE             01/01/2007
END_TIME             12:00:00
SWEEP_START          01/01
SWEEP_END            12/31
DRY_DAYS             0
REPORT_STEP          00:01:00
WET_STEP             00:01:00
DRY_STEP             01:00:00
ROUTING_STEP         0:00:15 
ALLOW_PONDING        NO
INERTIAL_DAMPING     PARTIAL
VARIABLE_STEP        0.75
LENGTHENING_STEP     0
MIN_SURFAREA         0
NORMAL_FLOW_LIMITED  SLOPE
SKIP_STEADY_STATE    NO
FORCE_MAIN_EQUATION  H-W
LINK_OFFSETS         DEPTH
MIN_SLOPE            0

[EVAPORATION]
;;Type       Parameters
;;---------- ----------
CONSTANT     0.0

[RAINGAGES]
;;               Rain      Time   Snow   Data      
;;Name           Type      Intrvl Catch  Source    
;;-------------- --------- ------ ------ ----------
RainGage         INTENSITY 0:05   1.0    TIMESERIES 100-yr          
Null             INTENSITY 1:00   1.0    TIMESERIES Null            

[SUBCATCHMENTS]
;;                                                 Total    Pcnt.             Pcnt.    Curb     Snow    
;;Name           Raingage         Outlet           Area     Imperv   Width    Slope    Length   Pack    
;;-------------- ---------------- ---------------- -------- -------- -------- -------- -------- --------
S5               RainGage         J10              4.79     87.7     1670     2        0                        
S6               RainGage         J11              1.98     95.0     690      2        0                        
S7               RainGage         J10              2.33     0.0      907      3.1      0                        
S3.1             RainGage         J3               1.29     0        614      4.7      0                        
S3.2             RainGage         S_FS_1           1.02     65       349      2        0                        
S3.3             RainGage         S_FS_2           1.38     58       489      2        0                        
S4.1             RainGage         J6               1.65     0        580      5        0                        
S4.2             RainGage         S_FS_3           0.79     70       268      2        0                        
S4.3             RainGage         S_FS_4           1.91     65       657      2        0                        
S4.4             RainGage         J9               2.40     69       839      2        0                        
S_FS_1           Null             J15              0.038    0        410      2        0                        
S_FS_2           Null             J17              0.043    0        463      2        0                        
S_FS_3           Null             J16              0.025    0        267      2        0                        
S_FS_4           Null             J16              0.082    0        894      2        0                        
S1.1             RainGage         J12              1.21     65       422      2        0                        
S1.2             RainGage         S_IT_1           1.46     65       509      2        0                        
S1.3             RainGage         S_IT_2           1.88     45       655      2        0                        
S2.1             RainGage         J14              1.30     45       453      2        0                        
S2.2             RainGage         S_IT_3           1.50     70       523      2        0                        
S2.3             RainGage         S_IT_4           1.88     70       655      2        0                        
S_IT_1           Null             J1               0.031    0        3        0.422    0                        
S_IT_2           Null             J1               0.033    0        3        0.422    0                        
S_IT_3           Null             J13              0.031    0        3        0.444    0                        
S_IT_4           Null             J13              0.032    0        3        0.468    0                        

[SUBAREAS]
;;Subcatchment   N-Imperv   N-Perv     S-Imperv   S-Perv     PctZero    RouteTo    PctRouted 
;;-------------- ---------- ---------- ---------- ---------- ---------- ---------- ----------
S5               0.015      0.24       0.06       0.3        25         OUTLET    
S6               0.015      0.24       0.06       0.3        25         OUTLET    
S7               0.015      0.24       0.06       0.3        25         OUTLET    
S3.1             0.015      0.24       0.06       0.3        25         OUTLET    
S3.2             0.015      0.24       0.06       0.3        25         OUTLET    
S3.3             0.015      0.24       0.06       0.3        25         OUTLET    
S4.1             0.015      0.24       0.06       0.3        25         OUTLET    
S4.2             0.015      0.24       0.06       0.3        25         OUTLET    
S4.3             0.015      0.24       0.06       0.3        25         OUTLET    
S4.4             0.015      0.24       0.06       0.3        25         OUTLET    
S_FS_1           0.015      0.24       0.06       0.3        25         OUTLET    
S_FS_2           0.015      0.24       0.06       0.3        25         OUTLET    
S_FS_3           0.015      0.24       0.06       0.3        25         OUTLET    
S_FS_4           0.015      0.24       0.06       0.3        25         OUTLET    
S1.1             0.015      0.24       0.06       0.3        25         OUTLET    
S1.2             0.015      0.24       0.06       0.3        25         OUTLET    
S1.3             0.015      0.24       0.06       0.3        25         OUTLET    
S2.1             0.015      0.24       0.06       0.3        25         OUTLET    
S2.2             0.015      0.24       0.06       0.3        25         OUTLET    
S2.3             0.015      0.24       0.06       0.3        25         OUTLET    
S_IT_1           0.015      0.24       0.06       14.4       25         OUTLET    
S_IT_2           0.015      0.24       0.06       14.4       25         OUTLET    
S_IT_3           0.015      0.24       0.06       14.4       25         OUTLET    
S_IT_4           0.015      0.24       0.06       14.4       25         OUTLET    

[INFILTRATION]
;;Subcatchment   MaxRate    MinRate    Decay      DryTime    MaxInfil  
;;-------------- ---------- ---------- ---------- ---------- ----------
S5               4.5        0.2        6.5        7          0         
S6               4.5        0.2        6.5        7          0         
S7               4.5        0.2        6.5        7          0         
S3.1             4.5        0.2        6.5        7          0         
S3.2             4.5        0.2        6.5        7          0         
S3.3             4.5        0.2        6.5        7          0         
S4.1             4.5        0.2        6.5        7          0         
S4.2             4.5        0.2        6.5        7          0         
S4.3             4.5        0.2        6.5        7          0         
S4.4             4.5        0.2        6.5        7          0         
S_FS_1           0.2        0.2        6.5        7          0         
S_FS_2           0.2        0.2        6.5        7          0         
S_FS_3           0.2        0.2        6.5        7          0         
S_FS_4           0.2        0.2        6.5        7          0         
S1.1             4.5        0.2        6.5        7          0         
S1.2             4.5        0.2        6.5        7          0         
S1.3             4.5        0.2        6.5        7          0         
S2.1             4.5        0.2        6.5        7          0         
S2.2             4.5        0.2        6.5        7          0         
S2.3             4.5        0.2        6.5        7          0         
S_IT_1           0.2        0.2        6.5        7          0         
S_IT_2           0.2        0.2        6.5        7          0         
S_IT_3           0.2        0.2        6.5        7          0         
S_IT_4           0.2        0.2        6.5        7          0         

[JUNCTIONS]
;;               Invert     Max.       Init.      Surcharge  Ponded    
;;Name           Elev.      Depth      Depth      Depth      Area      
;;-------------- ---------- ---------- ---------- ---------- ----------
J1               4973       0          0          0          0         
J2               4969       0          0          0          0         
J3               4973       0          0          0          0         
J4               4971       0          0          0          0         
J5               4969.8     0          0          0          0         
J6               4969       0          0          0          0         
J7               4971.5     0          0          0          0         
J8               4966.5     0          0          0          0         
J9               4964.8     0          0          0          0         
J10              4963.8     0          0          0          0         
J11              4963       0          0          0          0         
J12              4973.8     0          0          0          0         
J13              4970.7     0          0          0          0         
J14              4972.9     0          0          0          0         
J15              4974.5     0          0          0          0         
J16              4973.5     0          0          0          0         
J17              4973.5     0          0          0          0         

[OUTFALLS]
;;               Invert     Outfall    Stage/Table      Tide
;;Name           Elev.      Type       Time Series      Gate
;;-------------- ---------- ---------- ---------------- ----
O1               4962       FREE                        NO

[CONDUITS]
;;               Inlet            Outlet                      Manning    Inlet      Outlet     Init.      Max.      
;;Name           Node             Node             Length     N          Offset     Offset     Flow       Flow      
;;-------------- ---------------- ---------------- ---------- ---------- ---------- ---------- ---------- ----------
C1               J1               J5               185.00     0.05       0          0          0          0         
C2               J2               J11              526.00     0.016      0          4          0          0         
C3               J3               J4               109.00     0.016      0          0          0          0         
C4               J4               J5               133.00     0.05       0          0          0          0         
C5               J5               J6               207.00     0.05       0          0          0          0         
C6               J7               J6               140.00     0.05       0          0          0          0         
C7               J6               J8               95.00      0.016      0          0          0          0         
C8               J8               J9               166.00     0.05       0          0          0          0         
C9               J9               J10              320.00     0.05       0          0          0          0         
C10              J10              J11              145.00     0.05       0          0          0          0         
C11              J11              O1               89.00      0.016      0          0          0          0         
C12              J12              J1               281.7      0.05       0          0          0          0         
C13              J14              J13              275.7      0.016      0          0          0          0         
C14              J13              J2               157.48     0.016      0          0          0          0         
C15              J15              J3               444.75     0.05       0          0          0          0         
C16              J17              J5               200.16     0.05       0          0          0          0         
C17              J16              J7               300.42     0.016      0          0          0          0         

[XSECTIONS]
;;Link           Shape        Geom1            Geom2      Geom3      Geom4      Barrels   
;;-------------- ------------ ---------------- ---------- ---------- ---------- ----------
C1               TRAPEZOIDAL  3                5          5          5          1                    
C2               TRAPEZOIDAL  1.5              0          0.0001     25         1                    
C3               CIRCULAR     2.25             0          0          0          1                    
C4               TRAPEZOIDAL  3                5          5          5          1                    
C5               TRAPEZOIDAL  3                5          5          5          1                    
C6               TRAPEZOIDAL  3                5          5          5          1                    
C7               CIRCULAR     3.5              0          0          0          1                    
C8               TRAPEZOIDAL  3                5          5          5          1                    
C9               TRAPEZOIDAL  3                5          5          5          1                    
C10              TRAPEZOIDAL  3                5          5          5          1                    
C11              CIRCULAR     4.75             0          0          0          1                    
C12              TRAPEZOIDAL  3                5          5          5          1                    
C13              TRAPEZOIDAL  1.5              0          0.0001     25         1                    
C14              TRAPEZOIDAL  1.5              0          0.0001     25         1                    
C15              TRAPEZOIDAL  3                5          5          5          1                    
C16              TRAPEZOIDAL  3                5          5          5          1                    
C17              TRAPEZOIDAL  1.5              0          0.0001     25         1                    

[LOSSES]
;;Link           Inlet      Outlet     Average    Flap Gate 
;;-------------- ---------- ---------- ---------- ----------

[TIMESERIES]
;;Name           Date       Time       Value     
;;-------------- ---------- ---------- ----------
2-yr                        0:00       0.29      
2-yr                        0:05       0.33      
2-yr                        0:10       0.38      
2-yr                        0:15       0.64      
2-yr                        0:20       0.81      
2-yr                        0:25       1.57      
2-yr                        0:30       2.85      
2-yr                        0:35       1.18      
2-yr                        0:40       0.71      
2-yr                        0:45       0.42      
2-yr                        0:50       0.35      
2-yr                        0:55       0.3       
2-yr                        1:00       0.2       
2-yr                        1:05       0.19      
2-yr                        1:10       0.18      
2-yr                        1:15       0.17      
2-yr                        1:20       0.17      
2-yr                        1:25       0.16      
2-yr                        1:30       0.15      
2-yr                        1:35       0.15      
2-yr                        1:40       0.14      
2-yr                        1:45       0.14      
2-yr                        1:50       0.13      
2-yr                        1:55       0.13      

10-yr                       0:00       0.49      
10-yr                       0:05       0.56      
10-yr                       0:10       0.65      
10-yr                       0:15       1.09      
10-yr                       0:20       1.39      
10-yr                       0:25       2.69      
10-yr                       0:30       4.87      
10-yr                       0:35       2.02      
10-yr                       0:40       1.21      
10-yr                       0:45       0.71      
10-yr                       0:50       0.6       
10-yr                       0:55       0.52      
10-yr                       1:00       0.39      
10-yr                       1:05       0.37      
10-yr                       1:10       0.35      
10-yr                       1:15       0.34      
10-yr                       1:20       0.32      
10-yr                       1:25       0.31      
10-yr                       1:30       0.3       
10-yr                       1:35       0.29      
10-yr                       1:40       0.28      
10-yr                       1:45       0.27      
10-yr                       1:50       0.26      
10-yr                       1:55       0.25      

100-yr                      0:00       1         
100-yr                      0:05       1.14      
100-yr                      0:10       1.33      
100-yr                      0:15       2.23      
100-yr                      0:20       2.84      
100-yr                      0:25       5.49      
100-yr                      0:30       9.95      
100-yr                      0:35       4.12      
100-yr                      0:40       2.48      
100-yr                      0:45       1.46      
100-yr                      0:50       1.22      
100-yr                      0:55       1.06      
100-yr                      1:00       1         
100-yr                      1:05       0.95      
100-yr                      1:10       0.91      
100-yr                      1:15       0.87      
100-yr                      1:20       0.84      
100-yr                      1:25       0.81      
100-yr                      1:30       0.78      
100-yr                      1:35       0.75      
100-yr                      1:40       0.73      
100-yr                      1:45       0.71      
100-yr                      1:50       0.69      
100-yr                      1:55       0.67      

;Rain gage for the filter strips
Null                        0          0         

[REPORT]
INPUT      NO
CONTROLS   NO
SUBCATCHMENTS ALL
NODES ALL
LINKS ALL

[TAGS]
Link       C1               Swale           
Link       C2               Gutter          
Link       C3               Culvert         
Link       C4               Swale           
Link       C5               Swale           
Link       C6               Swale           
Link       C7               Culvert         
Link       C8               Swale           
Link       C9               Swale           
Link       C10              Swale           
Link       C11              Culvert         
Link       C12              Swale           
Link       C13              Gutter          
Link       C14              Gutter          
Link       C15              Swale           
Link       C16              Swale           
Link       C17              Gutter          

[MAP]
DIMENSIONS 0.000 0.000 1423.000 1475.000
Units      Feet

[COORDINATES]
;;Node           X-Coord            Y-Coord           
;;-------------- ------------------ ------------------
J1               658.226            1036.898          
J2               1221.193           1005.760          
J3               405.340            905.702           
J4               505.381            862.573           
J5               631.295            859.123           
J6               822.753            819.444           
J7               831.377            709.035           
J8               915.895            840.146           
J9               1072.856           867.749           
J10              1253.964           640.029           
J11              1333.308           519.269           
J12              683.595            1315.998          
J13              1155.648           1148.947          
J14              1062.428           1402.265          
J15              122.465            696.959           
J16              693.742            465.166           
J17              504.326            705.361           
O1               1411.347           477.401           

[VERTICES]
;;Link           X-Coord            Y-Coord           
;;-------------- ------------------ ------------------
C2               1321.234           774.591           
C2               1374.705           652.105           
C2               1366.080           588.275           
C4               541.602            841.871           
C5               672.691            850.497           
C5               712.363            829.795           
C5               743.409            805.643           
C5               805.504            812.544           
C6               791.705            734.912           
C6               798.605            784.942           
C8               965.915            838.421           
C8               995.238            831.520           
C8               1038.359           850.497           
C9               1102.179           867.749           
C9               1131.501           852.222           
C9               1147.024           829.795           
C9               1162.548           809.094           
C9               1198.770           779.766           
C9               1219.468           757.339           
C9               1233.267           721.111           
C9               1238.441           715.936           
C9               1234.992           674.532           
C9               1247.066           646.930           
C15              146.613            676.257           
C15              208.707            726.287           
C15              239.754            793.567           
C15              251.828            876.374           
C15              291.499            912.602           
C15              355.318            929.854           
C16              553.370            778.096           
C17              793.524            615.711           
C17              849.334            695.212           

[Polygons]
;;Subcatchment   X-Coord            Y-Coord           
;;-------------- ------------------ ------------------
S5               1301.380           474.258           
S5               1271.580           445.380           
S5               1232.250           393.835           
S5               1241.743           384.340           
S5               1222.756           366.706           
S5               1233.606           355.854           
S5               1026.105           66.931            
S5               1008.474           56.079            
S5               708.750            275.824           
S5               1023.392           704.462           
S5               1150.568           618.812           
S5               1251.110           640.809           
S5               1328.087           519.824           
S6               1334.370           519.824           
S6               1306.163           488.956           
S6               1293.280           474.205           
S6               1232.250           393.835           
S6               1241.743           381.627           
S6               1222.756           365.350           
S6               1232.250           353.142           
S6               1027.461           65.574            
S6               1012.543           56.079            
S6               707.394            273.111           
S6               688.407            254.121           
S6               739.943            218.853           
S6               788.767            159.169           
S6               806.398            106.268           
S6               813.179            1.821             
S6               994.912            12.673            
S6               1228.181           27.594            
S6               1222.756           115.763           
S6               1228.181           167.308           
S6               1241.743           229.705           
S6               1255.305           254.121           
S6               1279.717           302.953           
S6               1309.554           354.498           
S6               1335.322           401.974           
S6               1359.734           448.093           
S6               1370.502           475.830           
S6               1381.499           491.542           
S7               1122.396           968.970           
S7               1173.932           987.282           
S7               1225.468           1005.594          
S7               1377.365           675.977           
S7               1390.927           642.065           
S7               1396.352           598.659           
S7               1381.499           491.542           
S7               1331.229           519.824           
S7               1249.539           640.809           
S7               1150.568           617.241           
S7               1020.680           704.462           
S7               1054.586           772.285           
S7               1076.733           848.212           
S7               1056.310           900.062           
S7               1040.601           937.772           
S3.1             120.453            1033.907          
S3.1             182.935            990.809           
S3.1             179.344            939.809           
S3.1             168.571            910.359           
S3.1             169.290            874.443           
S3.1             177.907            849.303           
S3.1             212.380            791.120           
S3.1             209.508            760.233           
S3.1             187.243            733.655           
S3.1             131.226            674.754           
S3.1             181.498            639.557           
S3.1             205.916            665.416           
S3.1             284.917            773.880           
S3.1             316.517            821.289           
S3.1             361.044            879.471           
S3.1             372.535            888.091           
S3.1             422.090            882.345           
S3.1             440.763            903.176           
S3.1             427.117            941.246           
S3.1             380.435            955.612           
S3.1             304.307            989.372           
S3.1             210.944            1040.372          
S3.1             111.835            1101.428          
S3.1             85.980             1062.640          
S3.2             60.843             1028.161          
S3.2             42.172             963.513           
S3.2             36.426             936.218           
S3.2             35.708             847.148           
S3.2             65.871             758.078           
S3.2             94.598             712.824           
S3.2             133.380            673.317           
S3.2             209.508            760.951           
S3.2             213.098            789.683           
S3.2             187.243            834.218           
S3.2             169.290            870.133           
S3.2             167.853            910.359           
S3.2             179.344            939.809           
S3.2             183.653            990.809           
S3.2             85.980             1061.203          
S3.3             429.272            940.528           
S3.3             441.481            903.894           
S3.3             421.371            882.345           
S3.3             372.535            888.809           
S3.3             349.553            864.387           
S3.3             181.498            635.966           
S3.3             288.508            559.107           
S3.3             427.835            728.627           
S3.3             494.626            681.219           
S3.3             561.417            779.627           
S3.3             497.499            820.570           
S3.3             479.544            878.035           
S3.3             492.472            922.570           
S4.1             479.185            877.474           
S4.1             497.019            820.292           
S4.1             561.010            778.323           
S4.1             565.730            774.651           
S4.1             630.770            732.158           
S4.1             734.099            662.910           
S4.1             795.468            615.171           
S4.1             851.591            701.731           
S4.1             832.184            717.994           
S4.1             886.209            795.111           
S4.1             869.949            896.360           
S4.1             814.875            897.934           
S4.1             608.741            897.409           
S4.1             493.872            922.590           
S4.2             496.997            681.280           
S4.2             727.786            510.814           
S4.2             795.961            616.447           
S4.2             562.379            777.971           
S4.3             593.671            332.522           
S4.3             288.561            557.203           
S4.3             428.264            728.229           
S4.3             727.227            511.932           
S4.4             885.044            793.461           
S4.4             832.954            717.597           
S4.4             853.059            702.059           
S4.4             726.031            513.770           
S4.4             590.779            330.051           
S4.4             686.735            253.273           
S4.4             1022.124           700.231           
S4.4             1076.956           849.217           
S4.4             1040.401           936.049           
S4.4             938.048            905.886           
S4.4             871.336            895.832           
S_FS_1           62.998             1032.200          